CemigDFeeders/VCS11/VCS11SegmentosMT.dss
new line.TR1082324 bus1=BMT164382590.1.2.3,bus2=BMT2432848B.1.2.3,Phases=3,Linecode=CAB202_3_3,Length=0.103070000,Units=km
new line.TR1082331 bus1=BMT164382593.1.2.3,bus2=BMT164382594.1.2.3,Phases=3,Linecode=CAB103_3_3,Length=0.021950000,Units=km
new line.TR1082338 bus1=BMT164382593.1.2.3,bus2=BMT2438483B.1.2.3,Phases=3,Linecode=CAB202_3_3,Length=0.139140000,Units=km
new line.TR1082345 bus1=BMT164382595.2,bus2=BMT164382596.2,Phases=1,Linecode=CAB202_3_1,Length=0.090530000,Units=km
new line.TR1082352 bus1=BMT164382595.1.2.3,bus2=BMT164382597.1.2.3,Phases=3,Linecode=CAB202_3_3,Length=0.266030000,Units=km
new line.TR1082359 bus1=BMT164382601.2,bus2=BMT126748927.2,Phases=1,Linecode=CAB202_3_1,Length=0.112230000,Units=km
new line.TR1082366 bus1=BMT164382601.1.2.3,bus2=BMT164382602.1.2.3,Phases=3,Linecode=CAB102_3_3,Length=0.029990000,Units=km
new line.TR1082373 bus1=BMT164382601.1.2.3,bus2=BMT164382603.1.2.3,Phases=3,Linecode=CAB202_3_3,Length=0.229790000,Units=km
new line.TR1082380 bus1=BMT168203646.2,bus2=BMT152685654.2,Phases=1,Linecode=CAB202_3_1,Length=0.070690000,Units=km
new line.TR1082387 bus1=BMT168203646.2,bus2=BMT1524451B.2,Phases=1,Linecode=CAB202_3_1,Length=0.042940000,Units=km
new line.TR1082394 bus1=BMT164382605.2,bus2=BMT1524318B.2,Phases=1,Linecode=CAB202_3_1,Length=0.281540000,Units=km
new line.TR1082401 bus1=BMT164382605.1.2.3,bus2=BMT164382607.1.2.3,Phases=3,Linecode=CAB202_3_3,Length=0.148630000,Units=km
new line.TR1082408 bus1=BMT1524318B.2,bus2=BMT164382606.2,Phases=1,Linecode=CAB202_3_1,Length=0.093720000,Units=km
new line.TR1082415 bus1=BMT164382607.2,bus2=BMT164382608.2,Phases=1,Linecode=CAB202_3_1,Length=0.099980000,Units=km
new line.TR1082422 bus1=BMT164382607.1.2.3,bus2=BMT126748983.1.2.3,Phases=3,Linecode=CAB202_3_3,Length=0.090180000,Units=km
new line.TR1082429 bus1=BMT126749242.2,bus2=BMT126749249.2,Phases=1,Linecode=CAB202_3_1,Length=0.206500000,Units=km
new line.TR1082436 bus1=BMT126748983.1.2.3,bus2=BMT2199839B.1.2.3,Phases=3,Linecode=CAB202_3_3,Length=0.149370000,Units=km
new line.TR1082443 bus1=BMT126749263.2,bus2=BMT126749270.2,Phases=1,Linecode=CAB202_3_1,Length=0.049990000,Units=km
new line.TR1082450 bus1=BMT126749263.2,bus2=BMT2199909B.2,Phases=1,Linecode=CAB202_3_1,Length=0.123380000,Units=km
new line.TR1082457 bus1=BMT164382609.2,bus2=BMT164382610.2,Phases=1,Linecode=CAB202_3_1,Length=0.064020000,Units=km
new line.TR1082464 bus1=BMT164382609.1.2.3,bus2=BMT164382611.1.2.3,Phases=3,Linecode=CAB202_3_3,Length=0.133710000,Units=km
new line.TR1082471 bus1=BMT161795083.1,bus2=BMT161795084.1,Phases=1,Linecode=CAB202_3_1,Length=0.275380000,Units=km
new line.TR1082478 bus1=BMT126749004.2,bus2=BMT2199853B.2,Phases=1,Linecode=CAB202_3_1,Length=0.008060000,Units=km
new line.TR1082485 bus1=BMT126749004.1.2.3,bus2=BMT2199860B.1.2.3,Phases=3,Linecode=CAB202_3_3,Length=0.060860000,Units=km
new line.TR1082499 bus1=BMT161795084.1,bus2=BMT161795085.1,Phases=1,Linecode=CAB102_3_1,Length=0.050980000,Units=km
new line.TR1082506 bus1=BMT126749018.1.2.3,bus2=BMT164382614.1.2.3,Phases=3,Linecode=CAB202_3_3,Length=0.078500000,Units=km
new line.TR1082513 bus1=BMT126749116.3,bus2=BMT2199881B.3,Phases=1,Linecode=CAB202_3_1,Length=0.101240000,Units=km
new line.TR1082520 bus1=BMT164382614.1.2.3,bus2=BMT164382615.1.2.3,Phases=3,Linecode=CAB102_3_3,Length=0.059020000,Units=km
new line.TR1082527 bus1=BMT1524381B.3,bus2=BMT126749123.3,Phases=1,Linecode=CAB202_3_1,Length=0.160430000,Units=km
new line.TR1082534 bus1=BMT126749144.3,bus2=BMT1524395B.3,Phases=1,Linecode=CAB202_3_1,Length=0.180240000,Units=km
new line.TR1082541 bus1=BMT126749144.3,bus2=BMT126749158.3,Phases=1,Linecode=CAB202_3_1,Length=0.027800000,Units=km
new line.TR1082548 bus1=BMT1524395B.3,bus2=BMT126749151.3,Phases=1,Linecode=CAB202_3_1,Length=0.212550000,Units=km
new line.TR1082555 bus1=BMT126749277.2,bus2=BMT126749284.2,Phases=1,Linecode=CAB202_3_1,Length=0.263950000,Units=km
new line.TR1082562 bus1=BMT126749277.2,bus2=BMT126749291.2,Phases=1,Linecode=CAB103_3_1,Length=0.022360000,Units=km
new line.TR1082569 bus1=BMT126749277.2,bus2=BMT2199916B.2,Phases=1,Linecode=CAB202_3_1,Length=0.014420000,Units=km
new line.TR1082576 bus1=BMT126749284.2,bus2=BMT126749305.2,Phases=1,Linecode=CAB202_3_1,Length=0.161210000,Units=km
new line.TR1082583 bus1=BMT126749284.2,bus2=BMT2199923B.2,Phases=1,Linecode=CAB202_3_1,Length=0.079980000,Units=km
new line.TR1082590 bus1=BMT126749312.2,bus2=BMT126749319.2,Phases=1,Linecode=CAB202_3_1,Length=0.197950000,Units=km
new line.TR1082597 bus1=BMT133725372.2,bus2=BMT133725379.2,Phases=1,Linecode=CAB202_3_1,Length=0.254900000,Units=km
new line.TR1082604 bus1=BMT126749319.2,bus2=BMT126749326.2,Phases=1,Linecode=CAB102_3_1,Length=0.036050000,Units=km
new line.TR1082611 bus1=BMT126749319.2,bus2=BMT126749333.2,Phases=1,Linecode=CAB202_3_1,Length=0.042420000,Units=km
new line.TR1082618 bus1=BMT133725379.2,bus2=BMT133725386.2,Phases=1,Linecode=CAB202_3_1,Length=0.249950000,Units=km
new line.TR1082625 bus1=BMT162982704.2,bus2=BMT162982705.2,Phases=1,Linecode=CAB102_3_1,Length=0.049990000,Units=km
new line.TR1082632 bus1=BMT126749333.2,bus2=BMT126749340.2,Phases=1,Linecode=CAB102_3_1,Length=0.060820000,Units=km
new line.TR1082639 bus1=BMT152685654.2,bus2=BMT168203653.2,Phases=1,Linecode=CAB202_3_1,Length=0.056560000,Units=km
new line.TR1082653 bus1=BMT1524451B.2,bus2=BMT2199776B.2,Phases=1,Linecode=CAB202_3_1,Length=0.041000000,Units=km
new line.TR1082660 bus1=BMT168203647.2,bus2=BMT168203648.2,Phases=1,Linecode=CAB102_3_1,Length=0.053840000,Units=km
new line.TR1083339 bus1=BMT1524808B.3,bus2=BMT169718433.3,Phases=1,Linecode=CAB202_3_1,Length=0.103220000,Units=km
new line.TR1083353 bus1=BMT169718433.3,bus2=BMT169718434.3,Phases=1,Linecode=CAB202_3_1,Length=0.098970000,Units=km
new line.TR1083360 bus1=BMT127219838.3,bus2=BMT127219845.3,Phases=1,Linecode=CAB202_3_1,Length=0.055070000,Units=km
new line.TR1083381 bus1=BMT127219859.3,bus2=BMT127219866.3,Phases=1,Linecode=CAB103_3_1,Length=0.044710000,Units=km
new line.TR1083388 bus1=BMT163805434.1,bus2=BMT163805437.1,Phases=1,Linecode=CAB202_3_1,Length=0.176100000,Units=km
new line.TR1083395 bus1=BMT163805434.1,bus2=BMT163805438.1,Phases=1,Linecode=CAB202_3_1,Length=0.033010000,Units=km
new line.TR1083402 bus1=BMT163805442.1,bus2=BMT163805444.1,Phases=1,Linecode=CAB202_3_1,Length=0.133390000,Units=km
new line.TR1083409 bus1=BMT163805442.1,bus2=BMT1910977B.1,Phases=1,Linecode=CAB202_3_1,Length=0.380680000,Units=km
new line.TR1083416 bus1=BMT163805442.1,bus2=BMT2199699B.1,Phases=1,Linecode=CAB202_3_1,Length=0.010770000,Units=km
new line.TR1083423 bus1=BMT141827039.2,bus2=BMT126750481.2,Phases=1,Linecode=CAB202_3_1,Length=0.241610000,Units=km
new line.TR1083430 bus1=BMT141827039.1.2.3,bus2=BMT150139526.1.2.3,Phases=3,Linecode=CAB203_3_3,Length=0.306700000,Units=km
new line.TR1083444 bus1=BMT162924101.2,bus2=BMT162924102.2,Phases=1,Linecode=CAB202_3_1,Length=0.045170000,Units=km
new line.TR1083451 bus1=BMT126750481.2,bus2=BMT2233796B.2,Phases=1,Linecode=CAB202_3_1,Length=0.014210000,Units=km
new line.TR1083458 bus1=BMT169175437.1,bus2=BMT169175445.1,Phases=1,Linecode=CAB202_3_1,Length=0.028280000,Units=km
new line.TR1083465 bus1=BMT169175437.1,bus2=BMT2216744B.1,Phases=1,Linecode=CAB202_3_1,Length=0.050790000,Units=km
new line.TR1083472 bus1=BMT169175447.1,bus2=BMT169175449.1,Phases=1,Linecode=CAB202_3_1,Length=0.221320000,Units=km
new line.TR1083479 bus1=BMT169175447.1,bus2=BMT169175450.1,Phases=1,Linecode=CAB202_3_1,Length=0.125280000,Units=km
new line.TR1083486 bus1=BMT169175450.1,bus2=BMT169175451.1,Phases=1,Linecode=CAB202_3_1,Length=0.181780000,Units=km
new line.TR1083493 bus1=BMT169175450.1,bus2=BMT169175452.1,Phases=1,Linecode=CAB202_3_1,Length=0.171480000,Units=km
new line.TR1083500 bus1=BMT169175452.1,bus2=BMT169175453.1,Phases=1,Linecode=CAB202_3_1,Length=0.080080000,Units=km
new line.TR1083507 bus1=BMT169175452.1,bus2=BMT1524892B.1,Phases=1,Linecode=CAB202_3_1,Length=0.075460000,Units=km
new line.TR1083514 bus1=BMT1524892B.1,bus2=BMT2216814B.1,Phases=1,Linecode=CAB202_3_1,Length=0.120090000,Units=km
new line.TR1083521 bus1=BMT169175454.1,bus2=BMT169175455.1,Phases=1,Linecode=CAB202_3_1,Length=0.121630000,Units=km
new line.TR1083528 bus1=BMT169175454.1,bus2=BMT2216821B.1,Phases=1,Linecode=CAB202_3_1,Length=0.120420000,Units=km
new line.TR1083535 bus1=BMT126752427.1,bus2=BMT126752434.1,Phases=1,Linecode=CAB202_3_1,Length=0.202450000,Units=km
new line.TR1083542 bus1=BMT126751706.1,bus2=BMT169175458.1,Phases=1,Linecode=CAB202_3_1,Length=0.184360000,Units=km
new line.TR1083549 bus1=BMT126751706.1,bus2=BMT2216835B.1,Phases=1,Linecode=CAB202_3_1,Length=0.011040000,Units=km
new line.TR1083556 bus1=BMT169175458.1,bus2=BMT169175460.1,Phases=1,Linecode=CAB102_3_1,Length=0.022360000,Units=km
new line.TR1083563 bus1=BMT169175458.1,bus2=BMT169175461.1,Phases=1,Linecode=CAB202_3_1,Length=0.142100000,Units=km
new line.TR1083570 bus1=BMT169175461.1,bus2=BMT1524927B.1,Phases=1,Linecode=CAB202_3_1,Length=0.344750000,Units=km
new line.TR1083577 bus1=BMT1524927B.1,bus2=BMT2217115B.1,Phases=1,Linecode=CAB202_3_1,Length=0.170660000,Units=km
new line.TR1083584 bus1=BMT169408021.1,bus2=BMT2217122B.1,Phases=1,Linecode=CAB202_3_1,Length=0.110430000,Units=km
new line.TR1083591 bus1=BMT126751748.1,bus2=BMT2219880B.1,Phases=1,Linecode=CAB202_3_1,Length=0.076050000,Units=km
new line.TR1083598 bus1=BMT126751762.1,bus2=BMT126751769.1,Phases=1,Linecode=CAB202_3_1,Length=0.071020000,Units=km
new line.TR1083605 bus1=BMT126751993.1,bus2=BMT126752000.1,Phases=1,Linecode=CAB202_3_1,Length=0.170390000,Units=km
new line.TR1083612 bus1=BMT169408024.1,bus2=BMT169408025.1,Phases=1,Linecode=CAB103_3_1,Length=0.070170000,Units=km
new line.TR1083619 bus1=BMT169408024.1,bus2=BMT1885511B.1,Phases=1,Linecode=CAB202_3_1,Length=0.053750000,Units=km
new line.TR1083626 bus1=BMT169408026.1,bus2=BMT169408027.1,Phases=1,Linecode=CAB102_3_1,Length=0.079990000,Units=km
new line.TR1083633 bus1=BMT169408026.1,bus2=BMT1524962B.1,Phases=1,Linecode=CAB202_3_1,Length=0.167600000,Units=km
new line.TR1083640 bus1=BMT1524962B.1,bus2=BMT169408028.1,Phases=1,Linecode=CAB202_3_1,Length=0.139970000,Units=km
new line.TR1083647 bus1=BMT169408028.1,bus2=BMT169408029.1,Phases=1,Linecode=CAB202_3_1,Length=0.280120000,Units=km
new line.TR1083661 bus1=BMT169408029.1,bus2=BMT169408036.1,Phases=1,Linecode=CAB202_3_1,Length=0.042000000,Units=km
new line.TR1083675 bus1=BMT126752147.1,bus2=BMT1524990B.1,Phases=1,Linecode=CAB202_3_1,Length=0.334770000,Units=km
new line.TR1083682 bus1=BMT169272776.1,bus2=BMT169272777.1,Phases=1,Linecode=CAB202_3_1,Length=0.208800000,Units=km
new line.TR1083689 bus1=BMT1524990B.1,bus2=BMT2219439B.1,Phases=1,Linecode=CAB202_3_1,Length=0.160000000,Units=km
new line.TR1083696 bus1=BMT169272777.1,bus2=BMT169272778.1,Phases=1,Linecode=CAB103_3_1,Length=0.070700000,Units=km
new line.TR1083703 bus1=BMT169272777.1,bus2=BMT126752217.1,Phases=1,Linecode=CAB202_3_1,Length=0.097000000,Units=km
new line.TR1083710 bus1=BMT169272777.1,bus2=BMT2219124B.1,Phases=1,Linecode=CAB102_3_1,Length=0.010440000,Units=km
new line.TR1083717 bus1=BMT126752392.1,bus2=BMT126752399.1,Phases=1,Linecode=CAB202_3_1,Length=0.051100000,Units=km
new line.TR1083731 bus1=BMT126752217.1,bus2=BMT169272780.1,Phases=1,Linecode=CAB103_3_1,Length=0.009850000,Units=km
new line.TR1083738 bus1=BMT126752399.1,bus2=BMT126752406.1,Phases=1,Linecode=CAB102_3_1,Length=0.044710000,Units=km
new line.TR1083745 bus1=BMT126752399.1,bus2=BMT126752413.1,Phases=1,Linecode=CAB202_3_1,Length=0.036050000,Units=km
new line.TR1083752 bus1=BMT126752399.1,bus2=BMT2219138B.1,Phases=1,Linecode=CAB102_3_1,Length=0.011310000,Units=km
new line.TR1083759 bus1=BMT162500383.1,bus2=BMT162500384.1,Phases=1,Linecode=CAB202_3_1,Length=0.022360000,Units=km
new line.TR1083766 bus1=BMT126752231.1,bus2=BMT126752252.1,Phases=1,Linecode=CAB202_3_1,Length=0.005830000,Units=km
new line.TR1083773 bus1=BMT126752231.1,bus2=BMT2219145B.1,Phases=1,Linecode=CAB202_3_1,Length=0.059470000,Units=km
new line.TR1083780 bus1=BMT126752301.1,bus2=BMT126752308.1,Phases=1,Linecode=CAB102_3_1,Length=0.029410000,Units=km
new line.TR1083787 bus1=BMT126752301.1,bus2=BMT126752315.1,Phases=1,Linecode=CAB202_3_1,Length=0.063050000,Units=km
new line.TR1083794 bus1=BMT169272784.1,bus2=BMT169272785.1,Phases=1,Linecode=CAB202_3_1,Length=0.100150000,Units=km
new line.TR1083801 bus1=BMT169272784.1,bus2=BMT169272786.1,Phases=1,Linecode=CAB202_3_1,Length=0.119400000,Units=km
new line.TR1083808 bus1=BMT126752336.1,bus2=BMT126752343.1,Phases=1,Linecode=CAB202_3_1,Length=0.091530000,Units=km
new line.TR1083815 bus1=BMT126752336.1,bus2=BMT126752350.1,Phases=1,Linecode=CAB202_3_1,Length=0.071830000,Units=km
new line.TR1083822 bus1=BMT169408042.1,bus2=BMT169408043.1,Phases=1,Linecode=CAB202_3_1,Length=0.079990000,Units=km
new line.TR1083829 bus1=BMT169408042.1,bus2=BMT1525053B.1,Phases=1,Linecode=CAB202_3_1,Length=0.060000000,Units=km
new line.TR1083836 bus1=BMT1525053B.1,bus2=BMT169408044.1,Phases=1,Linecode=CAB202_3_1,Length=0.205730000,Units=km
new line.TR1083843 bus1=BMT169408044.1,bus2=BMT169408045.1,Phases=1,Linecode=CAB202_3_1,Length=0.269210000,Units=km
new line.TR1083850 bus1=BMT169408044.1,bus2=BMT2219873B.1,Phases=1,Linecode=CAB202_3_1,Length=0.125550000,Units=km
new line.TR1083857 bus1=BMT126751769.1,bus2=BMT2219887B.1,Phases=1,Linecode=CAB202_3_1,Length=0.011700000,Units=km
new line.TR1083864 bus1=BMT152918007.1,bus2=BMT2220139B.1,Phases=1,Linecode=CAB202_3_1,Length=0.207720000,Units=km
new line.TR1083871 bus1=BMT152918008.1,bus2=BMT152918009.1,Phases=1,Linecode=CAB202_3_1,Length=0.082450000,Units=km
new line.TR1083878 bus1=BMT152918008.1,bus2=BMT1525081B.1,Phases=1,Linecode=CAB202_3_1,Length=0.053840000,Units=km
new line.TR1083885 bus1=BMT1525081B.1,bus2=BMT2220146B.1,Phases=1,Linecode=CAB202_3_1,Length=0.377770000,Units=km
new line.TR1083892 bus1=BMT152918010.1,bus2=BMT152918011.1,Phases=1,Linecode=CAB202_3_1,Length=0.163980000,Units=km
new line.TR1083899 bus1=BMT152918010.1,bus2=BMT2220153B.1,Phases=1,Linecode=CAB202_3_1,Length=0.329980000,Units=km
new line.TR1083906 bus1=BMT1525095B.1,bus2=BMT126751818.1,Phases=1,Linecode=CAB202_3_1,Length=0.095190000,Units=km
new line.TR1083913 bus1=BMT126751818.1,bus2=BMT152918012.1,Phases=1,Linecode=CAB202_3_1,Length=0.077990000,Units=km
new line.TR1083920 bus1=BMT140945235.1,bus2=BMT2220160B.1,Phases=1,Linecode=CAB202_3_1,Length=0.046610000,Units=km
new line.TR1083927 bus1=BMT1525109B.1,bus2=BMT140945242.1,Phases=1,Linecode=CAB202_3_1,Length=0.179690000,Units=km
new line.TR1083934 bus1=BMT152918012.1,bus2=BMT152918013.1,Phases=1,Linecode=CAB202_3_1,Length=0.101200000,Units=km
new line.TR1083941 bus1=BMT152918012.1,bus2=BMT152918014.1,Phases=1,Linecode=CAB202_3_1,Length=0.062790000,Units=km
new line.TR1083948 bus1=BMT152918014.1,bus2=BMT152918015.1,Phases=1,Linecode=CAB202_3_1,Length=0.086010000,Units=km
new line.TR1083955 bus1=BMT152918018.1,bus2=BMT126751853.1,Phases=1,Linecode=CAB202_3_1,Length=0.131450000,Units=km
new line.TR1083962 bus1=BMT168923504.1,bus2=BMT168923505.1,Phases=1,Linecode=CAB202_3_1,Length=0.263320000,Units=km
new line.TR1083969 bus1=BMT126751853.1,bus2=BMT2220174B.1,Phases=1,Linecode=CAB202_3_1,Length=0.071330000,Units=km
new line.TR1083983 bus1=BMT138327368.1,bus2=BMT152918019.1,Phases=1,Linecode=CAB202_3_1,Length=0.069620000,Units=km
new line.TR1083997 bus1=BMT168923506.1,bus2=BMT168923507.1,Phases=1,Linecode=CAB202_3_1,Length=0.037100000,Units=km
new line.TR1084004 bus1=BMT152918019.1,bus2=BMT152918020.1,Phases=1,Linecode=CAB202_3_1,Length=0.080610000,Units=km
new line.TR1084011 bus1=BMT152918019.1,bus2=BMT152918021.1,Phases=1,Linecode=CAB202_3_1,Length=0.325670000,Units=km
new line.TR1084018 bus1=BMT140945249.1,bus2=BMT140945263.1,Phases=1,Linecode=CAB102_3_1,Length=0.084840000,Units=km
new line.TR1084025 bus1=BMT150139526.1,bus2=BMT150139527.1,Phases=1,Linecode=CAB102_3_1,Length=0.049990000,Units=km
new line.TR1084032 bus1=BMT150139526.1,bus2=BMT1525172B.1,Phases=1,Linecode=CAB202_3_1,Length=0.060820000,Units=km
new line.TR1084039 bus1=BMT150139526.3,bus2=BMT2216688B.3,Phases=1,Linecode=CAB202_3_1,Length=0.009050000,Units=km
new line.TR1084046 bus1=BMT150139526.1.2.3,bus2=BMT3148745B.1.2.3,Phases=3,Linecode=CAB203_3_3,Length=0.098980000,Units=km
new line.TR1084053 bus1=BMT1525172B.1,bus2=BMT150139528.1,Phases=1,Linecode=CAB202_3_1,Length=0.123670000,Units=km
new line.TR1084060 bus1=BMT150134538.1,bus2=BMT150134546.1,Phases=1,Linecode=CAB202_3_1,Length=0.104670000,Units=km
new line.TR1084067 bus1=BMT150134536.1,bus2=BMT150134538.1,Phases=1,Linecode=CAB202_3_1,Length=0.147620000,Units=km
new line.TR1084074 bus1=BMT150134538.1,bus2=BMT2209499B.1,Phases=1,Linecode=CAB202_3_1,Length=0.010820000,Units=km
new line.TR1084081 bus1=BMT150134536.3,bus2=BMT150134539.3,Phases=1,Linecode=CAB202_3_1,Length=0.138900000,Units=km
new line.TR1084088 bus1=BMT150134536.1.2.3,bus2=BMT2199958B.1.2.3,Phases=3,Linecode=CAB203_3_3,Length=0.099750000,Units=km
new line.TR1084095 bus1=BMT1525193B.1,bus2=BMT2199951B.1,Phases=1,Linecode=CAB202_3_1,Length=0.082310000,Units=km
new line.TR1084102 bus1=BMT150134540.3,bus2=BMT150134541.3,Phases=1,Linecode=CAB103_3_1,Length=0.036050000,Units=km
new line.TR1084109 bus1=BMT150134540.1.2.3,bus2=BMT1525207B.1.2.3,Phases=3,Linecode=CAB203_3_3,Length=0.205140000,Units=km
new line.TR1084116 bus1=BMT150134540.3,bus2=BMT2199965B.3,Phases=1,Linecode=CAB202_3_1,Length=0.021540000,Units=km
new line.TR1084123 bus1=BMT1525207B.1.2.3,bus2=BMT150134542.1.2.3,Phases=3,Linecode=CAB203_3_3,Length=0.059990000,Units=km
new line.TR1084137 bus1=BMT150134542.2,bus2=BMT150134544.2,Phases=1,Linecode=CAB103_3_1,Length=0.053920000,Units=km
new line.TR1084144 bus1=BMT150134542.3,bus2=BMT138012382.3,Phases=1,Linecode=CAB202_3_1,Length=0.052910000,Units=km
new line.TR1084151 bus1=BMT168200129.2,bus2=BMT126751321.2,Phases=1,Linecode=CAB202_3_1,Length=0.210200000,Units=km
new line.TR1084158 bus1=BMT168200128.2,bus2=BMT168200129.2,Phases=1,Linecode=CAB202_3_1,Length=0.107540000,Units=km
new line.TR1084165 bus1=BMT168200129.2,bus2=BMT2200756B.2,Phases=1,Linecode=CAB202_3_1,Length=0.022130000,Units=km
new line.TR1084172 bus1=BMT138086554.3,bus2=BMT138086561.3,Phases=1,Linecode=CAB202_3_1,Length=0.100750000,Units=km
new line.TR1084179 bus1=BMT138086554.3,bus2=BMT138086568.3,Phases=1,Linecode=CAB202_3_1,Length=0.209610000,Units=km
new line.TR1084186 bus1=BMT138086568.3,bus2=BMT126750705.3,Phases=1,Linecode=CAB202_3_1,Length=0.117020000,Units=km
new line.TR1084193 bus1=BMT138086568.3,bus2=BMT2200210B.3,Phases=1,Linecode=CAB202_3_1,Length=0.036390000,Units=km
new line.TR1084200 bus1=BMT126751251.3,bus2=BMT126751258.3,Phases=1,Linecode=CAB202_3_1,Length=0.192310000,Units=km
new line.TR1084207 bus1=BMT126750705.3,bus2=BMT138086582.3,Phases=1,Linecode=CAB202_3_1,Length=0.250750000,Units=km
new line.TR1084214 bus1=BMT126751258.3,bus2=BMT126751265.3,Phases=1,Linecode=CAB202_3_1,Length=0.031620000,Units=km
new line.TR1084221 bus1=BMT126751258.3,bus2=BMT126751272.3,Phases=1,Linecode=CAB202_3_1,Length=0.233400000,Units=km
new line.TR1084228 bus1=BMT138086582.3,bus2=BMT138086596.3,Phases=1,Linecode=CAB202_3_1,Length=0.192310000,Units=km
new line.TR1084235 bus1=BMT138086582.3,bus2=BMT138086603.3,Phases=1,Linecode=CAB202_3_1,Length=0.169670000,Units=km
new line.TR1084249 bus1=BMT138086617.3,bus2=BMT138086631.3,Phases=1,Linecode=CAB202_3_1,Length=0.243190000,Units=km
new line.TR1084256 bus1=BMT138086617.3,bus2=BMT138086638.3,Phases=1,Linecode=CAB202_3_1,Length=0.149800000,Units=km
new line.TR1084263 bus1=BMT138086617.3,bus2=BMT138086645.3,Phases=1,Linecode=CAB202_3_1,Length=0.039650000,Units=km
new line.TR1084270 bus1=BMT138086638.3,bus2=BMT138086659.3,Phases=1,Linecode=CAB102_3_1,Length=0.090250000,Units=km
new line.TR1084277 bus1=BMT138086638.3,bus2=BMT2200483B.3,Phases=1,Linecode=CAB202_3_1,Length=0.099460000,Units=km
new line.TR1084284 bus1=BMT138086666.3,bus2=BMT138086673.3,Phases=1,Linecode=CAB102_3_1,Length=0.022360000,Units=km
new line.TR1084291 bus1=BMT138086666.3,bus2=BMT126750803.3,Phases=1,Linecode=CAB202_3_1,Length=0.122040000,Units=km
new line.TR1084298 bus1=BMT126751230.3,bus2=BMT126751237.3,Phases=1,Linecode=CAB202_3_1,Length=0.049990000,Units=km
new line.TR1084305 bus1=BMT126750803.3,bus2=BMT2200490B.3,Phases=1,Linecode=CAB202_3_1,Length=0.010820000,Units=km
new line.TR1084312 bus1=BMT126750803.3,bus2=BMT2200504B.3,Phases=1,Linecode=CAB202_3_1,Length=0.126220000,Units=km
new line.TR1084319 bus1=BMT126750817.3,bus2=BMT138086687.3,Phases=1,Linecode=CAB202_3_1,Length=0.113990000,Units=km
new line.TR1084326 bus1=BMT152970798.3,bus2=BMT1525305B.3,Phases=1,Linecode=CAB202_3_1,Length=0.141390000,Units=km
new line.TR1084333 bus1=BMT138086687.3,bus2=BMT138086694.3,Phases=1,Linecode=CAB202_3_1,Length=0.075120000,Units=km
new line.TR1084340 bus1=BMT138086687.3,bus2=BMT138086701.3,Phases=1,Linecode=CAB202_3_1,Length=0.076040000,Units=km
new line.TR1084347 bus1=BMT1525305B.3,bus2=BMT152970799.3,Phases=1,Linecode=CAB202_3_1,Length=0.072100000,Units=km
new line.TR1084354 bus1=BMT152970799.3,bus2=BMT152970800.3,Phases=1,Linecode=CAB103_3_1,Length=0.041220000,Units=km
new line.TR1084361 bus1=BMT152970799.3,bus2=BMT2200532B.3,Phases=1,Linecode=CAB202_3_1,Length=0.099180000,Units=km
new line.TR1084368 bus1=BMT152970801.3,bus2=BMT152970802.3,Phases=1,Linecode=CAB103_3_1,Length=0.033300000,Units=km
new line.TR1084375 bus1=BMT152970801.3,bus2=BMT152970803.3,Phases=1,Linecode=CAB202_3_1,Length=0.097290000,Units=km
new line.TR1084382 bus1=BMT152970803.3,bus2=BMT152970804.3,Phases=1,Linecode=CAB103_3_1,Length=0.036050000,Units=km
new line.TR1084389 bus1=BMT152970803.3,bus2=BMT147410827.3,Phases=1,Linecode=CAB202_3_1,Length=0.202440000,Units=km
new line.TR1084396 bus1=BMT152970803.3,bus2=BMT2200539B.3,Phases=1,Linecode=CAB202_3_1,Length=0.010200000,Units=km
new line.TR1084403 bus1=BMT147410827.3,bus2=BMT152970806.3,Phases=1,Linecode=CAB202_3_1,Length=0.165500000,Units=km
new line.TR1084410 bus1=BMT147432891.3,bus2=BMT147432898.3,Phases=1,Linecode=CAB202_3_1,Length=0.079980000,Units=km
new line.TR1084424 bus1=BMT160849908.3,bus2=BMT160849909.3,Phases=1,Linecode=CAB202_3_1,Length=0.189700000,Units=km
new line.TR1084431 bus1=BMT160849908.3,bus2=BMT2200560B.3,Phases=1,Linecode=CAB202_3_1,Length=0.101580000,Units=km
new line.TR1084438 bus1=BMT160849910.3,bus2=BMT160849911.3,Phases=1,Linecode=CAB102_3_1,Length=0.044710000,Units=km
new line.TR1084445 bus1=BMT160849910.3,bus2=BMT160849912.3,Phases=1,Linecode=CAB202_3_1,Length=0.205870000,Units=km
new line.TR1084452 bus1=BMT160849912.3,bus2=BMT160849914.3,Phases=1,Linecode=CAB102_3_1,Length=0.067070000,Units=km
new line.TR1084459 bus1=BMT160849912.3,bus2=BMT160849915.3,Phases=1,Linecode=CAB202_3_1,Length=0.126460000,Units=km
new line.TR1084466 bus1=BMT160849915.3,bus2=BMT160849916.3,Phases=1,Linecode=CAB202_3_1,Length=0.058300000,Units=km
new line.TR1084473 bus1=BMT160849915.3,bus2=BMT160849917.3,Phases=1,Linecode=CAB202_3_1,Length=0.431530000,Units=km
new line.TR1084480 bus1=BMT160849917.3,bus2=BMT160849918.3,Phases=1,Linecode=CAB202_3_1,Length=0.101850000,Units=km
new line.TR1084487 bus1=BMT160849917.3,bus2=BMT160849919.3,Phases=1,Linecode=CAB202_3_1,Length=0.170660000,Units=km
...
