CemigDFeeders/VCS11/VCS11ChavesMT.dss
new line.CTR100840 bus1=BMT126745700.1.2.3,bus2=BMT169212064.1.2.3,Phases=3,LineCode=tieSwitch,Length=0.001,Units=km,switch=T !numEQ 
new line.CTR100847 bus1=BMT126745749.1.2.3,bus2=BMT152971332.1.2.3,Phases=3,LineCode=tieSwitch,Length=0.001,Units=km,switch=T !numEQ 
new line.CTR100854 bus1=BMT126745777.1.2.3,bus2=BMT164344871.1.2.3,Phases=3,LineCode=tieSwitch,Length=0.001,Units=km,switch=T !numEQ 
new line.CTR100875 bus1=BMT126745847.1.2.3,bus2=BMT157419789.1.2.3,Phases=3,LineCode=tieSwitch,Length=0.001,Units=km,switch=T !numEQ 
new line.CTR100882 bus1=BMT126745882.1.2.3,bus2=BMT126745959.1.2.3,Phases=3,LineCode=tieSwitch,Length=0.001,Units=km,switch=T !numEQ 
new line.CTR100889 bus1=BMT157419797.1.2.3,bus2=BMT126745798.1.2.3,Phases=3,LineCode=tieSwitch,Length=0.001,Units=km,switch=T !numEQ 
open line.CTR100889 term=1
new line.CTR100896 bus1=BMT126745910.1.2.3,bus2=BMT148858758.1.2.3,Phases=3,LineCode=tieSwitch,Length=0.001,Units=km,switch=T !numEQ 
new line.CTR100903 bus1=BMT148858762.1.2.3,bus2=BMT156820988.1.2.3,Phases=3,LineCode=tieSwitch,Length=0.001,Units=km,switch=T !numEQ 
new line.CTR100924 bus1=BMT126746092.1.2.3,bus2=BMT169125765.1.2.3,Phases=3,LineCode=tieSwitch,Length=0.001,Units=km,switch=T !numEQ 
new line.CTR100931 bus1=BMT126746435.1.2.3,bus2=BMT126753148.1.2.3,Phases=3,LineCode=tieSwitch,Length=0.001,Units=km,switch=T !numEQ 
new line.CTR100952 bus1=BMT126746407.1.2.3,bus2=BMT168991601.1.2.3,Phases=3,LineCode=tieSwitch,Length=0.001,Units=km,switch=T !numEQ 
new line.CTR100966 bus1=BMT126746526.1.2.3,bus2=BMT165045047.1.2.3,Phases=3,LineCode=tieSwitch,Length=0.001,Units=km,switch=T !numEQ 
new line.CTR100973 bus1=BMT157063055.1.2.3,bus2=BMT157063060.1.2.3,Phases=3,LineCode=tieSwitch,Length=0.001,Units=km,switch=T !numEQ 
new line.CTR100980 bus1=BMT126746183.1.2.3,bus2=BMT156992941.1.2.3,Phases=3,LineCode=tieSwitch,Length=0.001,Units=km,switch=T !numEQ 
new line.CTR100987 bus1=BMT126746190.1.2.3,bus2=BMT138775585.1.2.3,Phases=3,LineCode=tieSwitch,Length=0.001,Units=km,switch=T !numEQ 
new line.CTR100994 bus1=BMT126746211.1.2.3,bus2=BMT126746295.1.2.3,Phases=3,LineCode=tieSwitch,Length=0.001,Units=km,switch=T !numEQ 
new line.CTR101008 bus1=BMT126747513.1.2.3,bus2=BMT157620424.1.2.3,Phases=3,LineCode=tieSwitch,Length=0.001,Units=km,switch=T !numEQ 
new line.CTR101022 bus1=BMT126752924.1.2.3,bus2=BMT126752938.1.2.3,Phases=3,LineCode=tieSwitch,Length=0.001,Units=km,switch=T !numEQ 
new line.CTR101043 bus1=BMT126747730.2,bus2=BMT126747737.2,Phases=1,LineCode=tieSwitch1,Length=0.001,Units=km,switch=T !numEQ 
new line.CTR101071 bus1=BMT126748927.2,bus2=BMT168203644.2,Phases=1,LineCode=tieSwitch1,Length=0.001,Units=km,switch=T !numEQ 
new line.CTR101092 bus1=BMT126748745.1,bus2=BMT163805430.1,Phases=1,LineCode=tieSwitch1,Length=0.001,Units=km,switch=T !numEQ 
new line.CTR101099 bus1=BMT127226719.3,bus2=BMT127226747.3,Phases=1,LineCode=tieSwitch1,Length=0.001,Units=km,switch=T !numEQ 
new line.CTR101120 bus1=BMT126748983.2,bus2=BMT126749242.2,Phases=1,LineCode=tieSwitch1,Length=0.001,Units=km,switch=T !numEQ 
new line.CTR101127 bus1=BMT126749018.3,bus2=BMT126749116.3,Phases=1,LineCode=tieSwitch1,Length=0.001,Units=km,switch=T !numEQ 
new line.CTR101134 bus1=BMT126749004.1,bus2=BMT161795083.1,Phases=1,LineCode=tieSwitch1,Length=0.001,Units=km,switch=T !numEQ 
new line.CTR101176 bus1=BMT141827039.1,bus2=BMT152938394.1,Phases=1,LineCode=tieSwitch1,Length=0.001,Units=km,switch=T !numEQ 
new line.CTR101190 bus1=BMT126751748.1,bus2=BMT169408021.1,Phases=1,LineCode=tieSwitch1,Length=0.001,Units=km,switch=T !numEQ 
new line.CTR101197 bus1=BMT126752147.1,bus2=BMT169272776.1,Phases=1,LineCode=tieSwitch1,Length=0.001,Units=km,switch=T !numEQ 
new line.CTR101204 bus1=BMT126752217.1,bus2=BMT126752392.1,Phases=1,LineCode=tieSwitch1,Length=0.001,Units=km,switch=T !numEQ 
new line.CTR101218 bus1=BMT126751853.1,bus2=BMT168923504.1,Phases=1,LineCode=tieSwitch1,Length=0.001,Units=km,switch=T !numEQ 
new line.CTR101232 bus1=BMT126750705.3,bus2=BMT126751251.3,Phases=1,LineCode=tieSwitch1,Length=0.001,Units=km,switch=T !numEQ 
new line.CTR101239 bus1=BMT126750803.3,bus2=BMT126751230.3,Phases=1,LineCode=tieSwitch1,Length=0.001,Units=km,switch=T !numEQ 
new line.CTR101246 bus1=BMT126750817.3,bus2=BMT152970798.3,Phases=1,LineCode=tieSwitch1,Length=0.001,Units=km,switch=T !numEQ 
new line.CTR101253 bus1=BMT126750859.3,bus2=BMT159095376.3,Phases=1,LineCode=tieSwitch1,Length=0.001,Units=km,switch=T !numEQ 
new line.CTR101267 bus1=BMT126751363.2,bus2=BMT126751510.2,Phases=1,LineCode=tieSwitch1,Length=0.001,Units=km,switch=T !numEQ 
new line.CTR101274 bus1=BMT126751398.2,bus2=BMT126751419.2,Phases=1,LineCode=tieSwitch1,Length=0.001,Units=km,switch=T !numEQ 
new line.CTR101281 bus1=BMT126746127.1.2.3,bus2=BMT126746148.1.2.3,Phases=3,LineCode=tieSwitch,Length=0.001,Units=km,switch=T !numEQ 
new line.CTR101295 bus1=BMT157071858.1.2.3,bus2=BMT2097240.1.2.3,Phases=3,LineCode=tieSwitch,Length=0.001,Units=km,switch=T !numEQ 
open line.CTR101295 term=1
new line.CTR101302 bus1=BMT126753309.1.2.3,bus2=BMT126753337.1.2.3,Phases=3,LineCode=tieSwitch,Length=0.001,Units=km,switch=T !numEQ 
new line.CTR101309 bus1=BMT126753211.1.2.3,bus2=BMT126753253.1.2.3,Phases=3,LineCode=tieSwitch,Length=0.001,Units=km,switch=T !numEQ 
new line.CTR101323 bus1=BMT148858763.1.2.3,bus2=BMT1696343.1.2.3,Phases=3,LineCode=tieSwitch,Length=0.001,Units=km,switch=T !numEQ 
open line.CTR101323 term=1
new line.CTR113776 bus1=BMT127338929.1.2.3,bus2=BMT141676623.1.2.3,Phases=3,LineCode=tieSwitch,Length=0.001,Units=km,switch=T !numEQ 
new line.CTR138444 bus1=BMT126748612.3,bus2=BMT168749915.3,Phases=1,LineCode=tieSwitch1,Length=0.001,Units=km,switch=T !numEQ 
new line.CTR153935 bus1=BMT126747807.2,bus2=BMT126748486.2,Phases=1,LineCode=tieSwitch1,Length=0.001,Units=km,switch=T !numEQ 
new line.CTR154530 bus1=BMT164391948.1.2.3,bus2=BMT159179897.1.2.3,Phases=3,LineCode=tieSwitch,Length=0.001,Units=km,switch=T !numEQ 
new line.CTR155489 bus1=BMT126752252.1,bus2=BMT126752294.1,Phases=1,LineCode=tieSwitch1,Length=0.001,Units=km,switch=T !numEQ 
new line.CTR178995 bus1=BMT126746365.1.2.3,bus2=BMT150126484.1.2.3,Phases=3,LineCode=tieSwitch,Length=0.001,Units=km,switch=T !numEQ 
new line.CTR190629 bus1=BMT126751706.1,bus2=BMT126752427.1,Phases=1,LineCode=tieSwitch1,Length=0.001,Units=km,switch=T !numEQ 
new line.CTR102065 bus1=BMT168464021.3,bus2=BMT168464078.3,Phases=1,LineCode=tieSwitch1,Length=0.001,Units=km,switch=T !numEQ 
new line.CTR102247 bus1=BMT126747289.1.2.3,bus2=BMT126747310.1.2.3,Phases=3,LineCode=tieSwitch,Length=0.001,Units=km,switch=T !numEQ 
new line.CTR102254 bus1=BMT126747380.1.2.3,bus2=BMT157501508.1.2.3,Phases=3,LineCode=tieSwitch,Length=0.001,Units=km,switch=T !numEQ 
new line.CTR102275 bus1=BMT126746848.1.2.3,bus2=BMT164650753.1.2.3,Phases=3,LineCode=tieSwitch,Length=0.001,Units=km,switch=T !numEQ 
new line.CTR102303 bus1=BMT126747030.2,bus2=BMT126747037.2,Phases=1,LineCode=tieSwitch1,Length=0.001,Units=km,switch=T !numEQ 
new line.CTR12801 bus1=BMT126746638.1.2.3,bus2=BMT126753134.1.2.3,Phases=3,LineCode=tieSwitch,Length=0.001,Units=km,switch=T !numEQ 
new line.CTR12850 bus1=BMT126746050.1.2.3,bus2=BMT126746057.1.2.3,Phases=3,LineCode=tieSwitch,Length=0.001,Units=km,switch=T !numEQ 
new line.CTR12871 bus1=BMT126745693.1.2.3,bus2=BMT126753414.1.2.3,Phases=3,LineCode=tieSwitch,Length=0.001,Units=km,switch=T !numEQ 
new line.CTR165275 bus1=BMT126747772.2,bus2=BMT126748514.2,Phases=1,LineCode=tieSwitch1,Length=0.001,Units=km,switch=T !numEQ 
new line.CTR165289 bus1=BMT126753218.1.2.3,bus2=BMT157071854.1.2.3,Phases=3,LineCode=tieSwitch,Length=0.001,Units=km,switch=T !numEQ 
new line.CTR165303 bus1=BMT126746246.1.2.3,bus2=BMT157627350.1.2.3,Phases=3,LineCode=tieSwitch,Length=0.001,Units=km,switch=T !numEQ 
new line.CTR180010 bus1=BMT126747884.2,bus2=BMT159220734.2,Phases=1,LineCode=tieSwitch1,Length=0.001,Units=km,switch=T !numEQ 
new line.CTR33010 bus1=BMT126751818.1,bus2=BMT140945235.1,Phases=1,LineCode=tieSwitch1,Length=0.001,Units=km,switch=T !numEQ 
new line.CTR33262 bus1=BMT126747618.1.2.3,bus2=BMT126748556.1.2.3,Phases=3,LineCode=tieSwitch,Length=0.001,Units=km,switch=T !numEQ 
new line.CTR413888 bus1=BMT133725379.2,bus2=BMT162982704.2,Phases=1,LineCode=tieSwitch1,Length=0.001,Units=km,switch=T !numEQ 
new line.CTR416205 bus1=BMT134255860.1.2.3,bus2=BMT134255902.1.2.3,Phases=3,LineCode=tieSwitch,Length=0.001,Units=km,switch=T !numEQ 
new line.CTR462517 bus1=BMT146570421.1.2.3,bus2=BMT169444487.1.2.3,Phases=3,LineCode=tieSwitch,Length=0.001,Units=km,switch=T !numEQ 
new line.CTR464610 bus1=BMT147180562.2,bus2=BMT168200127.2,Phases=1,LineCode=tieSwitch1,Length=0.001,Units=km,switch=T !numEQ 
new line.CTR464624 bus1=BMT147183670.2,bus2=BMT147201534.2,Phases=1,LineCode=tieSwitch1,Length=0.001,Units=km,switch=T !numEQ 
new line.CTR465289 bus1=BMT147410827.3,bus2=BMT147432891.3,Phases=1,LineCode=tieSwitch1,Length=0.001,Units=km,switch=T !numEQ 
new line.CTR53373 bus1=BMT126751769.1,bus2=BMT152918007.1,Phases=1,LineCode=tieSwitch1,Length=0.001,Units=km,switch=T !numEQ 
new line.CTR872449 bus1=BMT156450911.2,bus2=BMT156450912.2,Phases=1,LineCode=tieSwitch1,Length=0.001,Units=km,switch=T !numEQ 
new line.CTR884634 bus1=BMT160867226.2,bus2=BMT169125346.2,Phases=1,LineCode=tieSwitch1,Length=0.001,Units=km,switch=T !numEQ 
new line.CTR159367 bus1=BMT126747653.3,bus2=BMT126748542.3,Phases=1,LineCode=tieSwitch1,Length=0.001,Units=km,switch=T !numEQ 
new line.CTR159486 bus1=BMT126747961.2,bus2=BMT156450898.2,Phases=1,LineCode=tieSwitch1,Length=0.001,Units=km,switch=T !numEQ 
new line.CTR159892 bus1=BMT157419801.1.2.3,bus2=BMT126745945.1.2.3,Phases=3,LineCode=tieSwitch,Length=0.001,Units=km,switch=T !numEQ 
open line.CTR159892 term=1
new line.CTR18597 bus1=BMT126750292.3,bus2=BMT127219838.3,Phases=1,LineCode=tieSwitch1,Length=0.001,Units=km,switch=T !numEQ 
new line.CTR449182 bus1=BMT142913355.3,bus2=BMT142913635.3,Phases=1,LineCode=tieSwitch1,Length=0.001,Units=km,switch=T !numEQ 
new line.CTR449742 bus1=BMT143057128.2,bus2=BMT162195729.2,Phases=1,LineCode=tieSwitch1,Length=0.001,Units=km,switch=T !numEQ 
new line.CTR44987 bus1=BMT126753015.1.2.3,bus2=BMT147949463.1.2.3,Phases=3,LineCode=tieSwitch,Length=0.001,Units=km,switch=T !numEQ 
new line.CTRR22294 bus1=BMT152938395.1,bus2=BMT169175435.1,Phases=1,LineCode=tieSwitch1,Length=0.001,Units=km,switch=T !numEQ 
new line.CTRR25822 bus1=BMT147201541.2,bus2=BMT150140763.2,Phases=1,LineCode=tieSwitch1,Length=0.001,Units=km,switch=T !numEQ 
new line.CTRR9092 bus1=BMT126747744.2,bus2=BMT162152155.2,Phases=1,LineCode=tieSwitch1,Length=0.001,Units=km,switch=T !numEQ 
new line.CTR132704 bus1=BMT164705617.1.2.3,bus2=BMT157627355.1.2.3,Phases=3,LineCode=tieSwitch,Length=0.001,Units=km,switch=T !numEQ 
open line.CTR132704 term=1
new line.CTR13298 bus1=BMT126746862.1.2.3,bus2=BMT126746974.1.2.3,Phases=3,LineCode=tieSwitch,Length=0.001,Units=km,switch=T !numEQ 
new line.CTR14817 bus1=BMT126748668.1.2.3,bus2=BMT150139523.1.2.3,Phases=3,LineCode=tieSwitch,Length=0.001,Units=km,switch=T !numEQ 
new line.CTR163119 bus1=BMT168003651.1.2.3,bus2=BMT168003088.1.2.3,Phases=3,LineCode=tieSwitch,Length=0.001,Units=km,switch=T !numEQ 
new line.CTR163231 bus1=BMT126746498.1.2.3,bus2=BMT168003642.1.2.3,Phases=3,LineCode=tieSwitch,Length=0.001,Units=km,switch=T !numEQ 
new line.CTR430366 bus1=BMT138012382.3,bus2=BMT138086533.3,Phases=1,LineCode=tieSwitch1,Length=0.001,Units=km,switch=T !numEQ 
new line.CTR431388 bus1=BMT138327368.1,bus2=BMT138327396.1,Phases=1,LineCode=tieSwitch1,Length=0.001,Units=km,switch=T !numEQ 
new line.CTR433180 bus1=BMT138789956.2,bus2=BMT160868321.2,Phases=1,LineCode=tieSwitch1,Length=0.001,Units=km,switch=T !numEQ 
new line.CTR887932 bus1=BMT162152165.2,bus2=BMT162152210.2,Phases=1,LineCode=tieSwitch1,Length=0.001,Units=km,switch=T !numEQ 
new line.CTR888410 bus1=BMT162359991.2,bus2=BMT162359995.2,Phases=1,LineCode=tieSwitch1,Length=0.001,Units=km,switch=T !numEQ 
new line.CTR889627 bus1=BMT162924262.1,bus2=BMT162938759.1,Phases=1,LineCode=tieSwitch1,Length=0.001,Units=km,switch=T !numEQ 
new line.CTR94617 bus1=BMT126752231.1,bus2=BMT162500383.1,Phases=1,LineCode=tieSwitch1,Length=0.001,Units=km,switch=T !numEQ 
new line.CTRR35181 bus1=BMT157063059.1.2.3,bus2=BMT1696357.1.2.3,Phases=3,LineCode=tieSwitch,Length=0.001,Units=km,switch=T !numEQ 
open line.CTRR35181 term=1
new line.CTR11065 bus1=BMT90672236.1.2.3,bus2=BMT126743243.1.2.3,Phases=3,LineCode=tieSwitch,Length=0.001,Units=km,switch=T !numEQ 
new line.CTR11093 bus1=BMT126746540.1.2.3,bus2=BMT158080178.1.2.3,Phases=3,LineCode=tieSwitch,Length=0.001,Units=km,switch=T !numEQ 
new line.CTR12388 bus1=BMT157065261.1.2.3,bus2=BMT157065327.1.2.3,Phases=3,LineCode=tieSwitch,Length=0.001,Units=km,switch=T !numEQ 
new line.CTR181984 bus1=BMT126748311.2,bus2=BMT126748318.2,Phases=1,LineCode=tieSwitch1,Length=0.001,Units=km,switch=T !numEQ 
new line.CTR182208 bus1=BMT126746666.1.2.3,bus2=BMT126747450.1.2.3,Phases=3,LineCode=tieSwitch,Length=0.001,Units=km,switch=T !numEQ 
new line.CTR356803 bus1=BMT126751384.2,bus2=BMT126751482.2,Phases=1,LineCode=tieSwitch1,Length=0.001,Units=km,switch=T !numEQ 
new line.CTR3575 bus1=BMT152971345.1.2.3,bus2=BMT2098220.1.2.3,Phases=3,LineCode=tieSwitch,Length=0.001,Units=km,switch=T !numEQ 
open line.CTR3575 term=1
new line.CTR44259 bus1=BMT126746022.1.2.3,bus2=BMT148875593.1.2.3,Phases=3,LineCode=tieSwitch,Length=0.001,Units=km,switch=T !numEQ 
new line.CTR847686 bus1=BMT149192906.1.2.3,bus2=BMT162354189.1.2.3,Phases=3,LineCode=tieSwitch,Length=0.001,Units=km,switch=T !numEQ 
new line.CTR860234 bus1=BMT152859454.2,bus2=BMT152859474.2,Phases=1,LineCode=tieSwitch1,Length=0.001,Units=km,switch=T !numEQ 
new line.CTR860471 bus1=BMT152918014.1,bus2=BMT152918018.1,Phases=1,LineCode=tieSwitch1,Length=0.001,Units=km,switch=T !numEQ 
new line.CTR860767 bus1=BMT152970807.3,bus2=BMT160849907.3,Phases=1,LineCode=tieSwitch1,Length=0.001,Units=km,switch=T !numEQ 
new line.CTR876343 bus1=BMT157618481.3,bus2=BMT157618491.3,Phases=1,LineCode=tieSwitch1,Length=0.001,Units=km,switch=T !numEQ 
new line.CTR129155 bus1=BMT126752875.1.2.3,bus2=BMT149192899.1.2.3,Phases=3,LineCode=tieSwitch,Length=0.001,Units=km,switch=T !numEQ 
new line.CTR129806 bus1=BMT126750481.2,bus2=BMT162924101.2,Phases=1,LineCode=tieSwitch1,Length=0.001,Units=km,switch=T !numEQ 
new line.CTR130310 bus1=BMT126746673.1.2.3,bus2=BMT126746694.1.2.3,Phases=3,LineCode=tieSwitch,Length=0.001,Units=km,switch=T !numEQ 
new line.CTR14474 bus1=BMT126749312.2,bus2=BMT133725372.2,Phases=1,LineCode=tieSwitch1,Length=0.001,Units=km,switch=T !numEQ 
new line.CTR145703 bus1=BMT126747625.1.2.3,bus2=BMT170061412.1.2.3,Phases=3,LineCode=tieSwitch,Length=0.001,Units=km,switch=T !numEQ 
new line.CTR145948 bus1=BMT126747016.1.2.3,bus2=BMT126747058.1.2.3,Phases=3,LineCode=tieSwitch,Length=0.001,Units=km,switch=T !numEQ 
new line.CTR182264 bus1=BMT150134102.1.2.3,bus2=BMT150134534.1.2.3,Phases=3,LineCode=tieSwitch,Length=0.001,Units=km,switch=T !numEQ 
new line.CTR183615 bus1=BMT126747870.2,bus2=BMT126748465.2,Phases=1,LineCode=tieSwitch1,Length=0.001,Units=km,switch=T !numEQ 
new line.CTR19878 bus1=BMT127224675.3,bus2=BMT127225970.3,Phases=1,LineCode=tieSwitch1,Length=0.001,Units=km,switch=T !numEQ 
new line.CTR271 bus1=BMT126745735.1.2.3,bus2=BMT126753386.1.2.3,Phases=3,LineCode=tieSwitch,Length=0.001,Units=km,switch=T !numEQ 
new line.CTR190762 bus1=BMT126749123.3,bus2=BMT126749186.3,Phases=1,LineCode=tieSwitch1,Length=0.001,Units=km,switch=T !numEQ 
new line.CTR863981 bus1=BMT153895446.2,bus2=BMT153895457.2,Phases=1,LineCode=tieSwitch1,Length=0.001,Units=km,switch=T !numEQ 
new line.CTR887199 bus1=BMT161795086.1,bus2=BMT161795088.1,Phases=1,LineCode=tieSwitch1,Length=0.001,Units=km,switch=T !numEQ 
new line.CTR12192 bus1=BMT126747240.1.2.3,bus2=BMT126747429.1.2.3,Phases=3,LineCode=tieSwitch,Length=0.001,Units=km,switch=T !numEQ 
new line.CTR131724 bus1=BMT126751762.1,bus2=BMT126751993.1,Phases=1,LineCode=tieSwitch1,Length=0.001,Units=km,switch=T !numEQ 
new line.CTR131759 bus1=BMT126750873.3,bus2=BMT142913341.3,Phases=1,LineCode=tieSwitch1,Length=0.001,Units=km,switch=T !numEQ 
new line.CTR156777 bus1=BMT126753197.1.2.3,bus2=BMT135453686.1.2.3,Phases=3,LineCode=tieSwitch,Length=0.001,Units=km,switch=T !numEQ 
new line.CTR15678 bus1=BMT126747604.1.2.3,bus2=BMT160539791.1.2.3,Phases=3,LineCode=tieSwitch,Length=0.001,Units=km,switch=T !numEQ 
new line.CTR167928 bus1=BMT126752847.2,bus2=BMT126753050.2,Phases=1,LineCode=tieSwitch1,Length=0.001,Units=km,switch=T !numEQ 
new line.CTR19402 bus1=BMT126747996.2,bus2=BMT162359982.2,Phases=1,LineCode=tieSwitch1,Length=0.001,Units=km,switch=T !numEQ 
new line.CTR351077 bus1=BMT126748395.2,bus2=BMT166740850.2,Phases=1,LineCode=tieSwitch1,Length=0.001,Units=km,switch=T !numEQ 
new line.CTR45771 bus1=BMT126747548.2,bus2=BMT126753099.2,Phases=1,LineCode=tieSwitch1,Length=0.001,Units=km,switch=T !numEQ 
new line.CTR63026 bus1=BMT126751321.2,bus2=BMT126751559.2,Phases=1,LineCode=tieSwitch1,Length=0.001,Units=km,switch=T !numEQ 
new line.CTR868479 bus1=BMT155236335.1.2.3,bus2=BMT164382308.1.2.3,Phases=3,LineCode=tieSwitch,Length=0.001,Units=km,switch=T !numEQ 
new line.CTR868481 bus1=BMT155236511.1.2.3,bus2=BMT164391945.1.2.3,Phases=3,LineCode=tieSwitch,Length=0.001,Units=km,switch=T !numEQ 
new line.CTR868491 bus1=BMT155238873.3,bus2=BMT169148551.3,Phases=1,LineCode=tieSwitch1,Length=0.001,Units=km,switch=T !numEQ 
new line.CTR868492 bus1=BMT155238920.1.2.3,bus2=BMT160817209.1.2.3,Phases=3,LineCode=tieSwitch,Length=0.001,Units=km,switch=T !numEQ 
new line.CTR868643 bus1=BMT168003091.1.2.3,bus2=BMT155284179.1.2.3,Phases=3,LineCode=tieSwitch,Length=0.001,Units=km,switch=T !numEQ 
new line.CTR907225 bus1=BMT169147428.3,bus2=BMT169718431.3,Phases=1,LineCode=tieSwitch1,Length=0.001,Units=km,switch=T !numEQ 
new line.CTRR117 bus1=BMT126747457.1.2.3,bus2=BMT164705612.1.2.3,Phases=3,LineCode=tieSwitch,Length=0.001,Units=km,switch=T !numEQ 
new line.CTRR41165 bus1=BMT170061454.1.2.3,bus2=BMT169429363.1.2.3,Phases=3,LineCode=tieSwitch,Length=0.001,Units=km,switch=T !numEQ 
open line.CTRR41165 term=1
new line.CTR103990 bus1=BMT2091395.1.2.3,bus2=BMT170061453.1.2.3,Phases=3,LineCode=tieSwitch,Length=0.001,Units=km,switch=T !numEQ 
new line.CTR10456 bus1=BMT126752868.1.2.3,bus2=BMT126752882.1.2.3,Phases=3,LineCode=tieSwitch,Length=0.001,Units=km,switch=T !numEQ 
new line.CTR11695 bus1=BMT126746757.1.2.3,bus2=BMT159224356.1.2.3,Phases=3,LineCode=tieSwitch,Length=0.001,Units=km,switch=T !numEQ 
new line.CTR117374 bus1=BMT152973260.2,bus2=BMT152973268.2,Phases=1,LineCode=tieSwitch1,Length=0.001,Units=km,switch=T !numEQ 
new line.CTR134160 bus1=BMT126749249.2,bus2=BMT126749256.2,Phases=1,LineCode=tieSwitch1,Length=0.001,Units=km,switch=T !numEQ 
new line.CTR373099 bus1=BMT126746764.1.2.3,bus2=BMT126746806.1.2.3,Phases=3,LineCode=tieSwitch,Length=0.001,Units=km,switch=T !numEQ 
new line.CTR373113 bus1=BMT126746827.1.2.3,bus2=BMT166817913.1.2.3,Phases=3,LineCode=tieSwitch,Length=0.001,Units=km,switch=T !numEQ 
new line.CTR373134 bus1=BMT126746078.1.2.3,bus2=BMT157063053.1.2.3,Phases=3,LineCode=tieSwitch,Length=0.001,Units=km,switch=T !numEQ 
new line.CTR373512 bus1=BMT126746421.1.2.3,bus2=BMT126753162.1.2.3,Phases=3,LineCode=tieSwitch,Length=0.001,Units=km,switch=T !numEQ 
new line.CTR375577 bus1=BMT127339531.1.2.3,bus2=BMT169742031.1.2.3,Phases=3,LineCode=tieSwitch,Length=0.001,Units=km,switch=T !numEQ 
new line.CTR42565 bus1=BMT126752686.2,bus2=BMT160868325.2,Phases=1,LineCode=tieSwitch1,Length=0.001,Units=km,switch=T !numEQ 
new line.CTR64370 bus1=BMT126746708.1.2.3,bus2=BMT126747226.1.2.3,Phases=3,LineCode=tieSwitch,Length=0.001,Units=km,switch=T !numEQ 
new line.CTR859614 bus1=BMT152685654.2,bus2=BMT161666470.2,Phases=1,LineCode=tieSwitch1,Length=0.001,Units=km,switch=T !numEQ 
new line.CTR880617 bus1=BMT159095379.3,bus2=BMT159095650.3,Phases=1,LineCode=tieSwitch1,Length=0.001,Units=km,switch=T !numEQ 
new line.CTR880816 bus1=BMT164391946.1.2.3,bus2=BMT164391947.1.2.3,Phases=3,LineCode=tieSwitch,Length=0.001,Units=km,switch=T !numEQ 
new line.CTR8965 bus1=BMT126748591.1.2.3,bus2=BMT161718260.1.2.3,Phases=3,LineCode=tieSwitch,Length=0.001,Units=km,switch=T !numEQ 
new line.CTRR16148 bus1=BMT126746064.1.2.3,bus2=BMT126746071.1.2.3,Phases=3,LineCode=tieSwitch,Length=0.001,Units=km,switch=T !numEQ 
new line.CTRR16155 bus1=BMT126746813.1.2.3,bus2=BMT126746820.1.2.3,Phases=3,LineCode=tieSwitch,Length=0.001,Units=km,switch=T !numEQ 
new line.CTRR20145 bus1=BMT138086540.3,bus2=BMT138086547.3,Phases=1,LineCode=tieSwitch1,Length=0.001,Units=km,switch=T !numEQ 
new line.CTRR2042 bus1=BMT126748563.1.2.3,bus2=BMT167152190.1.2.3,Phases=3,LineCode=tieSwitch,Length=0.001,Units=km,switch=T !numEQ 
