CemigDFeeders/VCS11/VCS11Transformadores.dss
new transformer.1104893 Phases=1,Windings=3,Buses=[BMT142913649.3 BBT142908980.1.0 BBT142908980.0.2],Conns=[wye wye wye],kvs=[7.967 0.12 0.12],kvas=[15.000000000 15.000000000 15.000000000],Taps=[1,1.000000000,1.000000000],%loadloss=1.600000000,%noloadloss=0.400000000
new transformer.1118704 Phases=1,Windings=3,Buses=[BMT161718261.3 BBT146500274.1.0 BBT146500274.0.2],Conns=[wye wye wye],kvs=[7.967 0.12 0.12],kvas=[5.000000000 5.000000000 5.000000000],Taps=[1,1.000000000,1.000000000],%loadloss=1.900000000,%noloadloss=0.600000000
new transformer.1396572 Phases=1,Windings=3,Buses=[BMT160849913.3 BBT149583108.1.0 BBT149583108.0.2],Conns=[wye wye wye],kvs=[7.967 0.12 0.12],kvas=[10.000000000 10.000000000 10.000000000],Taps=[1,1.000000000,1.000000000],%loadloss=1.800000000,%noloadloss=0.450000000
new transformer.1420866 Phases=3,Windings=2,Buses=[BMT164382310.1.2.3 BBT155234327.1.2.3.0],Conns=[delta wye],kvs=[13.8 0.22],kvas=[45.000000000 45.000000000],Taps=[1,1.000000000],%loadloss=1.522000000,%noloadloss=0.377777000
new transformer.1420867 Phases=3,Windings=2,Buses=[BMT160817210.1.2.3 BBT155234836.1.2.3.0],Conns=[delta wye],kvs=[13.8 0.22],kvas=[45.000000000 45.000000000],Taps=[1,1.000000000],%loadloss=1.522000000,%noloadloss=0.377777000
new transformer.1420875 Phases=3,Windings=2,Buses=[BMT160817212.1.2.3 BBT155235957.1.2.3.0],Conns=[delta wye],kvs=[13.8 0.22],kvas=[45.000000000 45.000000000],Taps=[1,1.000000000],%loadloss=1.522000000,%noloadloss=0.377777000
new transformer.1420897 Phases=3,Windings=2,Buses=[BMT160817213.1.2.3 BBT155239388.1.2.3.0],Conns=[delta wye],kvs=[13.8 0.22],kvas=[45.000000000 45.000000000],Taps=[1,1.000000000],%loadloss=1.522000000,%noloadloss=0.377777000
new transformer.1420902 Phases=3,Windings=2,Buses=[BMT160817214.1.2.3 BBT155241124.1.2.3.0],Conns=[delta wye],kvs=[13.8 0.22],kvas=[45.000000000 45.000000000],Taps=[1,1.000000000],%loadloss=1.522000000,%noloadloss=0.377777000
new transformer.1429326 Phases=3,Windings=2,Buses=[BMT157063057.1.2.3 BBT157062815.1.2.3.0],Conns=[delta wye],kvs=[13.8 0.22],kvas=[250.000000000 250.000000000],Taps=[1,1.000000000],%loadloss=0.990000000,%noloadloss=0.280000000
new transformer.1429340 Phases=3,Windings=2,Buses=[BMT157065331.1.2.3 BBT157065060.1.2.3.0],Conns=[delta wye],kvs=[13.8 0.22],kvas=[150.000000000 150.000000000],Taps=[1,1.000000000],%loadloss=1.127000000,%noloadloss=0.280000000
new transformer.1429341 Phases=3,Windings=2,Buses=[BMT157065332.1.2.3 BBT157065083.1.2.3.0],Conns=[delta wye],kvs=[13.8 0.22],kvas=[150.000000000 150.000000000],Taps=[1,1.000000000],%loadloss=1.127000000,%noloadloss=0.280000000
new transformer.1429391 Phases=3,Windings=2,Buses=[BMT157071855.1.2.3 BBT157071736.1.2.3.0],Conns=[delta wye],kvs=[13.8 0.22],kvas=[75.000000000 75.000000000],Taps=[1,1.000000000],%loadloss=1.340000000,%noloadloss=0.340000000
new transformer.1432797 Phases=1,Windings=3,Buses=[BMT166740856.2 BBT157771987.1.0 BBT157771987.0.2],Conns=[wye wye wye],kvs=[7.967 0.12 0.12],kvas=[10.000000000 10.000000000 10.000000000],Taps=[1,1.000000000,1.000000000],%loadloss=1.800000000,%noloadloss=0.450000000
new transformer.1439612 Phases=1,Windings=3,Buses=[BMT159095652.3 BBT159095653.1.0 BBT159095653.0.2],Conns=[wye wye wye],kvs=[7.967 0.12 0.12],kvas=[10.000000000 10.000000000 10.000000000],Taps=[1,1.000000000,1.000000000],%loadloss=1.800000000,%noloadloss=0.450000000
new transformer.1485634 Phases=1,Windings=3,Buses=[BMT169148561.3 BBT169146777.1.0 BBT169146777.0.2],Conns=[wye wye wye],kvs=[7.967 0.12 0.12],kvas=[10.000000000 10.000000000 10.000000000],Taps=[1,1.000000000,1.000000000],%loadloss=1.800000000,%noloadloss=0.450000000
new transformer.1485637 Phases=1,Windings=3,Buses=[BMT169148558.3 BBT169147187.1.0 BBT169147187.0.2],Conns=[wye wye wye],kvs=[7.967 0.12 0.12],kvas=[15.000000000 15.000000000 15.000000000],Taps=[1,1.000000000,1.000000000],%loadloss=1.600000000,%noloadloss=0.400000000
new transformer.1485854 Phases=1,Windings=3,Buses=[BMT169175442.1 BBT169175464.1.0 BBT169175464.0.2],Conns=[wye wye wye],kvs=[7.967 0.12 0.12],kvas=[10.000000000 10.000000000 10.000000000],Taps=[1,1.000000000,1.000000000],%loadloss=1.800000000,%noloadloss=0.450000000
new transformer.234134 Phases=3,Windings=2,Buses=[BMT126747303.1.2.3 BBT1198699.1.2.3.0],Conns=[delta wye],kvs=[13.8 0.22],kvas=[45.000000000 45.000000000],Taps=[1,1.000000000],%loadloss=1.522000000,%noloadloss=0.377777000
new transformer.234162 Phases=3,Windings=2,Buses=[BMT135453742.1.2.3 BBT1199021.1.2.3.0],Conns=[delta wye],kvs=[13.8 0.22],kvas=[45.000000000 45.000000000],Taps=[1,1.000000000],%loadloss=1.522000000,%noloadloss=0.377777000
new transformer.234169 Phases=3,Windings=2,Buses=[BMT152971344.1.2.3 BBT1199091.1.2.3.0],Conns=[delta wye],kvs=[13.8 0.22],kvas=[75.000000000 75.000000000],Taps=[1,1.000000000],%loadloss=1.340000000,%noloadloss=0.340000000
new transformer.234176 Phases=3,Windings=2,Buses=[BMT126747359.1.2.3 BBT1199168.1.2.3.0],Conns=[delta wye],kvs=[13.8 0.22],kvas=[75.000000000 75.000000000],Taps=[1,1.000000000],%loadloss=1.340000000,%noloadloss=0.340000000
new transformer.234190 Phases=3,Windings=2,Buses=[BMT168003646.1.2.3 BBT1199364.1.2.3.0],Conns=[delta wye],kvs=[13.8 0.22],kvas=[75.000000000 75.000000000],Taps=[1,1.000000000],%loadloss=1.340000000,%noloadloss=0.340000000
new transformer.234211 Phases=1,Windings=3,Buses=[BMT168464080.3 BBT1199560.1.0 BBT1199560.0.2],Conns=[wye wye wye],kvs=[7.967 0.12 0.12],kvas=[35.000000000 35.000000000 35.000000000],Taps=[1,1.000000000,1.000000000],%loadloss=1.293000000,%noloadloss=0.342857000
new transformer.234225 Phases=3,Windings=2,Buses=[BMT126747352.1.2.3 BBT1199707.1.2.3.0],Conns=[delta wye],kvs=[13.8 0.22],kvas=[45.000000000 45.000000000],Taps=[1,1.000000000],%loadloss=1.522000000,%noloadloss=0.377777000
new transformer.1054437 Phases=1,Windings=3,Buses=[BMT168923511.1 BBT119252781.1.0 BBT119252781.0.2],Conns=[wye wye wye],kvs=[7.967 0.12 0.12],kvas=[5.000000000 5.000000000 5.000000000],Taps=[1,1.000000000,1.000000000],%loadloss=1.900000000,%noloadloss=0.600000000
new transformer.1054458 Phases=1,Windings=3,Buses=[BMT162500388.1 BBT119262791.1.0 BBT119262791.0.2],Conns=[wye wye wye],kvs=[7.967 0.12 0.12],kvas=[5.000000000 5.000000000 5.000000000],Taps=[1,1.000000000,1.000000000],%loadloss=1.900000000,%noloadloss=0.600000000
new transformer.1055298 Phases=1,Windings=3,Buses=[BMT152918017.1 BBT119654574.1.0 BBT119654574.0.2],Conns=[wye wye wye],kvs=[7.967 0.12 0.12],kvas=[10.000000000 10.000000000 10.000000000],Taps=[1,1.000000000,1.000000000],%loadloss=1.800000000,%noloadloss=0.450000000
new transformer.1055893 Phases=1,Windings=3,Buses=[BMT138086624.3 BBT127242644.1.0 BBT127242644.0.2],Conns=[wye wye wye],kvs=[7.967 0.12 0.12],kvas=[5.000000000 5.000000000 5.000000000],Taps=[1,1.000000000,1.000000000],%loadloss=1.900000000,%noloadloss=0.600000000
new transformer.1071517 Phases=1,Windings=3,Buses=[BMT162982706.2 BBT133721634.1.0 BBT133721634.0.2],Conns=[wye wye wye],kvs=[7.967 0.12 0.12],kvas=[5.000000000 5.000000000 5.000000000],Taps=[1,1.000000000,1.000000000],%loadloss=1.900000000,%noloadloss=0.600000000
new transformer.1089710 Phases=1,Windings=3,Buses=[BMT160868324.2 BBT138789438.1.0 BBT138789438.0.2],Conns=[wye wye wye],kvs=[7.967 0.12 0.12],kvas=[10.000000000 10.000000000 10.000000000],Taps=[1,1.000000000,1.000000000],%loadloss=1.800000000,%noloadloss=0.450000000
new transformer.1394945 Phases=3,Windings=2,Buses=[BMT162354190.1.2.3 BBT149193376.1.2.3.0],Conns=[delta wye],kvs=[13.8 0.22],kvas=[45.000000000 45.000000000],Taps=[1,1.000000000],%loadloss=1.522000000,%noloadloss=0.377777000
new transformer.1394950 Phases=3,Windings=2,Buses=[BMT162354191.1.2.3 BBT149193812.1.2.3.0],Conns=[delta wye],kvs=[13.8 0.22],kvas=[45.000000000 45.000000000],Taps=[1,1.000000000],%loadloss=1.522000000,%noloadloss=0.377777000
new transformer.1394954 Phases=3,Windings=2,Buses=[BMT162354192.1.2.3 BBT149194120.1.2.3.0],Conns=[delta wye],kvs=[13.8 0.22],kvas=[45.000000000 45.000000000],Taps=[1,1.000000000],%loadloss=1.522000000,%noloadloss=0.377777000
new transformer.1454453 Phases=1,Windings=3,Buses=[BMT162938762.1 BBT162926636.1.0 BBT162926636.0.2],Conns=[wye wye wye],kvs=[7.967 0.12 0.12],kvas=[15.000000000 15.000000000 15.000000000],Taps=[1,1.000000000,1.000000000],%loadloss=1.600000000,%noloadloss=0.400000000
new transformer.1471890 Phases=1,Windings=3,Buses=[BMT169408040.1 BBT166721995.1.0 BBT166721995.0.2],Conns=[wye wye wye],kvs=[7.967 0.12 0.12],kvas=[15.000000000 15.000000000 15.000000000],Taps=[1,1.000000000,1.000000000],%loadloss=1.600000000,%noloadloss=0.400000000
new transformer.1471998 Phases=1,Windings=3,Buses=[BMT166740858.2 BBT166740859.1.0 BBT166740859.0.2],Conns=[wye wye wye],kvs=[7.967 0.12 0.12],kvas=[10.000000000 10.000000000 10.000000000],Taps=[1,1.000000000,1.000000000],%loadloss=1.800000000,%noloadloss=0.450000000
new transformer.1483789 Phases=1,Windings=3,Buses=[BMT169408035.1 BBT168822272.1.0 BBT168822272.0.2],Conns=[wye wye wye],kvs=[7.967 0.12 0.12],kvas=[10.000000000 10.000000000 10.000000000],Taps=[1,1.000000000,1.000000000],%loadloss=1.800000000,%noloadloss=0.450000000
new transformer.233497 Phases=1,Windings=3,Buses=[BMT126747065.3 BBT1192133.1.0 BBT1192133.0.2],Conns=[wye wye wye],kvs=[7.967 0.12 0.12],kvas=[35.000000000 35.000000000 35.000000000],Taps=[1,1.000000000,1.000000000],%loadloss=1.293000000,%noloadloss=0.342857000
new transformer.233504 Phases=3,Windings=2,Buses=[BMT126747023.1.2.3 BBT1192287.1.2.3.0],Conns=[delta wye],kvs=[13.8 0.22],kvas=[45.000000000 45.000000000],Taps=[1,1.000000000],%loadloss=1.522000000,%noloadloss=0.377777000
new transformer.233511 Phases=3,Windings=2,Buses=[BMT159224365.1.2.3 BBT1192378.1.2.3.0],Conns=[delta wye],kvs=[13.8 0.22],kvas=[45.000000000 45.000000000],Taps=[1,1.000000000],%loadloss=1.522000000,%noloadloss=0.377777000
new transformer.233518 Phases=3,Windings=2,Buses=[BMT134255916.1.2.3 BBT1192441.1.2.3.0],Conns=[delta wye],kvs=[13.8 0.22],kvas=[75.000000000 75.000000000],Taps=[1,1.000000000],%loadloss=1.340000000,%noloadloss=0.340000000
new transformer.233539 Phases=1,Windings=3,Buses=[BMT126747044.2 BBT1192665.1.0 BBT1192665.0.2],Conns=[wye wye wye],kvs=[7.967 0.12 0.12],kvas=[15.000000000 15.000000000 15.000000000],Taps=[1,1.000000000,1.000000000],%loadloss=1.600000000,%noloadloss=0.400000000
new transformer.233546 Phases=3,Windings=2,Buses=[BMT166817914.1.2.3 BBT1192756.1.2.3.0],Conns=[delta wye],kvs=[13.8 0.22],kvas=[75.000000000 75.000000000],Taps=[1,1.000000000],%loadloss=1.340000000,%noloadloss=0.340000000
new transformer.233616 Phases=3,Windings=2,Buses=[BMT159224364.1.2.3 BBT1193449.1.2.3.0],Conns=[delta wye],kvs=[13.8 0.22],kvas=[75.000000000 75.000000000],Taps=[1,1.000000000],%loadloss=1.340000000,%noloadloss=0.340000000
new transformer.233630 Phases=3,Windings=2,Buses=[BMT155284184.1.2.3 BBT1193582.1.2.3.0],Conns=[delta wye],kvs=[13.8 0.22],kvas=[150.000000000 150.000000000],Taps=[1,1.000000000],%loadloss=1.127000000,%noloadloss=0.280000000
new transformer.233665 Phases=3,Windings=2,Buses=[BMT155284182.1.2.3 BBT1193876.1.2.3.0],Conns=[delta wye],kvs=[13.8 0.22],kvas=[45.000000000 45.000000000],Taps=[1,1.000000000],%loadloss=1.522000000,%noloadloss=0.377777000
new transformer.233693 Phases=1,Windings=3,Buses=[BMT126747051.2 BBT1194128.1.0 BBT1194128.0.2],Conns=[wye wye wye],kvs=[7.967 0.12 0.12],kvas=[35.000000000 35.000000000 35.000000000],Taps=[1,1.000000000,1.000000000],%loadloss=1.293000000,%noloadloss=0.342857000
new transformer.233700 Phases=3,Windings=2,Buses=[BMT134255909.1.2.3 BBT1194212.1.2.3.0],Conns=[delta wye],kvs=[13.8 0.22],kvas=[45.000000000 45.000000000],Taps=[1,1.000000000],%loadloss=1.522000000,%noloadloss=0.377777000
new transformer.1111403 Phases=3,Windings=2,Buses=[BMT164344875.1.2.3 BBT144735805.1.2.3.0],Conns=[delta wye],kvs=[13.8 0.22],kvas=[150.000000000 150.000000000],Taps=[1,1.000000000],%loadloss=1.127000000,%noloadloss=0.280000000
new transformer.1392338 Phases=3,Windings=2,Buses=[BMT168991606.1.2.3 BBT148580638.1.2.3.0],Conns=[delta wye],kvs=[13.8 0.22],kvas=[150.000000000 150.000000000],Taps=[1,1.000000000],%loadloss=1.127000000,%noloadloss=0.280000000
new transformer.1416221 Phases=1,Windings=3,Buses=[BMT169125366.2 BBT154209527.1.0 BBT154209527.0.2],Conns=[wye wye wye],kvs=[7.967 0.12 0.12],kvas=[10.000000000 10.000000000 10.000000000],Taps=[1,1.000000000,1.000000000],%loadloss=1.800000000,%noloadloss=0.450000000
new transformer.1416227 Phases=1,Windings=3,Buses=[BMT169125358.2 BBT154212447.1.0 BBT154212447.0.2],Conns=[wye wye wye],kvs=[7.967 0.12 0.12],kvas=[35.000000000 35.000000000 35.000000000],Taps=[1,1.000000000,1.000000000],%loadloss=1.293000000,%noloadloss=0.342857000
new transformer.1423175 Phases=3,Windings=2,Buses=[BMT164382612.1.2.3 BBT155753208.1.2.3.0],Conns=[delta wye],kvs=[13.8 0.22],kvas=[75.000000000 75.000000000],Taps=[1,1.000000000],%loadloss=1.340000000,%noloadloss=0.340000000
new transformer.1428688 Phases=1,Windings=3,Buses=[BMT162152194.2 BBT156933627.1.0 BBT156933627.0.2],Conns=[wye wye wye],kvs=[7.967 0.12 0.12],kvas=[10.000000000 10.000000000 10.000000000],Taps=[1,1.000000000,1.000000000],%loadloss=1.800000000,%noloadloss=0.450000000
new transformer.1446510 Phases=3,Windings=2,Buses=[BMT161718263.1.2.3 BBT160866408.1.2.3.0],Conns=[delta wye],kvs=[13.8 0.22],kvas=[150.000000000 150.000000000],Taps=[1,1.000000000],%loadloss=1.127000000,%noloadloss=0.280000000
new transformer.1451643 Phases=1,Windings=3,Buses=[BMT169742035.1 BBT162053338.1.0 BBT162053338.0.2],Conns=[wye wye wye],kvs=[7.967 0.12 0.12],kvas=[10.000000000 10.000000000 10.000000000],Taps=[1,1.000000000,1.000000000],%loadloss=1.800000000,%noloadloss=0.450000000
new transformer.1451859 Phases=1,Windings=3,Buses=[BMT162152213.2 BBT162151458.1.0 BBT162151458.0.2],Conns=[wye wye wye],kvs=[7.967 0.12 0.12],kvas=[10.000000000 10.000000000 10.000000000],Taps=[1,1.000000000,1.000000000],%loadloss=1.800000000,%noloadloss=0.450000000
new transformer.1457517 Phases=1,Windings=3,Buses=[BMT163805435.1 BBT163804805.1.0 BBT163804805.0.2],Conns=[wye wye wye],kvs=[7.967 0.12 0.12],kvas=[15.000000000 15.000000000 15.000000000],Taps=[1,1.000000000,1.000000000],%loadloss=1.600000000,%noloadloss=0.400000000
new transformer.1457520 Phases=1,Windings=3,Buses=[BMT163805436.1 BBT163805272.1.0 BBT163805272.0.2],Conns=[wye wye wye],kvs=[7.967 0.12 0.12],kvas=[35.000000000 35.000000000 35.000000000],Taps=[1,1.000000000,1.000000000],%loadloss=1.293000000,%noloadloss=0.342857000
new transformer.1480383 Phases=1,Windings=3,Buses=[BMT168203652.2 BBT168203245.1.0 BBT168203245.0.2],Conns=[wye wye wye],kvs=[7.967 0.12 0.12],kvas=[35.000000000 35.000000000 35.000000000],Taps=[1,1.000000000,1.000000000],%loadloss=1.293000000,%noloadloss=0.342857000
new transformer.1486067 Phases=3,Windings=2,Buses=[BMT169212070.1.2.3 BBT169211972.1.2.3.0],Conns=[delta wye],kvs=[13.8 0.22],kvas=[150.000000000 150.000000000],Taps=[1,1.000000000],%loadloss=1.127000000,%noloadloss=0.280000000
new transformer.233168 Phases=1,Windings=3,Buses=[BMT164650757.3 BBT1188248.1.0 BBT1188248.0.2],Conns=[wye wye wye],kvs=[7.967 0.12 0.12],kvas=[25.000000000 25.000000000 25.000000000],Taps=[1,1.000000000,1.000000000],%loadloss=1.420000000,%noloadloss=0.320000000
new transformer.233182 Phases=3,Windings=2,Buses=[BMT166817920.1.2.3 BBT1188416.1.2.3.0],Conns=[delta wye],kvs=[13.8 0.22],kvas=[75.000000000 75.000000000],Taps=[1,1.000000000],%loadloss=1.340000000,%noloadloss=0.340000000
new transformer.233189 Phases=3,Windings=2,Buses=[BMT166817923.1.2.3 BBT1188514.1.2.3.0],Conns=[delta wye],kvs=[13.8 0.22],kvas=[45.000000000 45.000000000],Taps=[1,1.000000000],%loadloss=1.522000000,%noloadloss=0.377777000
new transformer.233210 Phases=3,Windings=2,Buses=[BMT166817919.1.2.3 BBT1188759.1.2.3.0],Conns=[delta wye],kvs=[13.8 0.22],kvas=[45.000000000 45.000000000],Taps=[1,1.000000000],%loadloss=1.522000000,%noloadloss=0.377777000
new transformer.233224 Phases=1,Windings=3,Buses=[BMT166817924.1 BBT1188927.1.0 BBT1188927.0.2],Conns=[wye wye wye],kvs=[7.967 0.12 0.12],kvas=[35.000000000 35.000000000 35.000000000],Taps=[1,1.000000000,1.000000000],%loadloss=1.293000000,%noloadloss=0.342857000
new transformer.233231 Phases=3,Windings=2,Buses=[BMT166817916.1.2.3 BBT1188990.1.2.3.0],Conns=[delta wye],kvs=[13.8 0.22],kvas=[75.000000000 75.000000000],Taps=[1,1.000000000],%loadloss=1.340000000,%noloadloss=0.340000000
new transformer.233252 Phases=1,Windings=3,Buses=[BMT166817921.2 BBT1189249.1.0 BBT1189249.0.2],Conns=[wye wye wye],kvs=[7.967 0.12 0.12],kvas=[35.000000000 35.000000000 35.000000000],Taps=[1,1.000000000,1.000000000],%loadloss=1.293000000,%noloadloss=0.342857000
new transformer.233266 Phases=3,Windings=2,Buses=[BMT164650755.1.2.3 BBT1189431.1.2.3.0],Conns=[delta wye],kvs=[13.8 0.22],kvas=[75.000000000 75.000000000],Taps=[1,1.000000000],%loadloss=1.340000000,%noloadloss=0.340000000
new transformer.233308 Phases=3,Windings=2,Buses=[BMT166817927.1.2.3 BBT1189970.1.2.3.0],Conns=[delta wye],kvs=[13.8 0.22],kvas=[75.000000000 75.000000000],Taps=[1,1.000000000],%loadloss=1.340000000,%noloadloss=0.340000000
new transformer.233357 Phases=3,Windings=2,Buses=[BMT166817915.1.2.3 BBT1190635.1.2.3.0],Conns=[delta wye],kvs=[13.8 0.22],kvas=[75.000000000 75.000000000],Taps=[1,1.000000000],%loadloss=1.340000000,%noloadloss=0.340000000
new transformer.233385 Phases=3,Windings=2,Buses=[BMT126746995.1.2.3 BBT1190894.1.2.3.0],Conns=[delta wye],kvs=[13.8 0.22],kvas=[75.000000000 75.000000000],Taps=[1,1.000000000],%loadloss=1.340000000,%noloadloss=0.340000000
new transformer.234239 Phases=3,Windings=2,Buses=[BMT135453728.1.2.3 BBT1199868.1.2.3.0],Conns=[delta wye],kvs=[13.8 0.22],kvas=[75.000000000 75.000000000],Taps=[1,1.000000000],%loadloss=1.340000000,%noloadloss=0.340000000
new transformer.234253 Phases=3,Windings=2,Buses=[BMT157419793.1.2.3 BBT1199987.1.2.3.0],Conns=[delta wye],kvs=[13.8 0.22],kvas=[150.000000000 150.000000000],Taps=[1,1.000000000],%loadloss=1.127000000,%noloadloss=0.280000000
new transformer.234267 Phases=3,Windings=2,Buses=[BMT157419799.1.2.3 BBT1200085.1.2.3.0],Conns=[delta wye],kvs=[13.8 0.22],kvas=[150.000000000 150.000000000],Taps=[1,1.000000000],%loadloss=1.127000000,%noloadloss=0.280000000
new transformer.234274 Phases=3,Windings=2,Buses=[BMT168003644.1.2.3 BBT1200141.1.2.3.0],Conns=[delta wye],kvs=[13.8 0.22],kvas=[75.000000000 75.000000000],Taps=[1,1.000000000],%loadloss=1.340000000,%noloadloss=0.340000000
new transformer.234288 Phases=3,Windings=2,Buses=[BMT169125777.1.2.3 BBT1200253.1.2.3.0],Conns=[delta wye],kvs=[13.8 0.22],kvas=[75.000000000 75.000000000],Taps=[1,1.000000000],%loadloss=1.340000000,%noloadloss=0.340000000
new transformer.234295 Phases=3,Windings=2,Buses=[BMT157419795.1.2.3 BBT1200309.1.2.3.0],Conns=[delta wye],kvs=[13.8 0.22],kvas=[45.000000000 45.000000000],Taps=[1,1.000000000],%loadloss=1.522000000,%noloadloss=0.377777000
new transformer.234316 Phases=1,Windings=3,Buses=[BMT157065330.3 BBT1200512.1.0 BBT1200512.0.2],Conns=[wye wye wye],kvs=[7.967 0.12 0.12],kvas=[5.000000000 5.000000000 5.000000000],Taps=[1,1.000000000,1.000000000],%loadloss=1.900000000,%noloadloss=0.600000000
new transformer.234323 Phases=3,Windings=2,Buses=[BMT169212069.1.2.3 BBT1200540.1.2.3.0],Conns=[delta wye],kvs=[13.8 0.22],kvas=[75.000000000 75.000000000],Taps=[1,1.000000000],%loadloss=1.340000000,%noloadloss=0.340000000
new transformer.234330 Phases=3,Windings=2,Buses=[BMT152971337.1.2.3 BBT1200680.1.2.3.0],Conns=[delta wye],kvs=[13.8 0.22],kvas=[150.000000000 150.000000000],Taps=[1,1.000000000],%loadloss=1.127000000,%noloadloss=0.280000000
new transformer.234351 Phases=1,Windings=3,Buses=[BMT157065329.3 BBT1200883.1.0 BBT1200883.0.2],Conns=[wye wye wye],kvs=[7.967 0.12 0.12],kvas=[35.000000000 35.000000000 35.000000000],Taps=[1,1.000000000,1.000000000],%loadloss=1.293000000,%noloadloss=0.342857000
new transformer.234379 Phases=3,Windings=2,Buses=[BMT135453707.1.2.3 BBT1201219.1.2.3.0],Conns=[delta wye],kvs=[13.8 0.22],kvas=[75.000000000 75.000000000],Taps=[1,1.000000000],%loadloss=1.340000000,%noloadloss=0.340000000
new transformer.234386 Phases=3,Windings=2,Buses=[BMT148858759.1.2.3 BBT1201275.1.2.3.0],Conns=[delta wye],kvs=[13.8 0.22],kvas=[150.000000000 150.000000000],Taps=[1,1.000000000],%loadloss=1.127000000,%noloadloss=0.280000000
new transformer.234407 Phases=3,Windings=2,Buses=[BMT135453693.1.2.3 BBT1201380.1.2.3.0],Conns=[delta wye],kvs=[13.8 0.22],kvas=[250.000000000 250.000000000],Taps=[1,1.000000000],%loadloss=0.990000000,%noloadloss=0.280000000
new transformer.234414 Phases=3,Windings=2,Buses=[BMT126752959.1.2.3 BBT1201415.1.2.3.0],Conns=[delta wye],kvs=[13.8 0.22],kvas=[45.000000000 45.000000000],Taps=[1,1.000000000],%loadloss=1.522000000,%noloadloss=0.377777000
new transformer.234421 Phases=3,Windings=2,Buses=[BMT126753141.1.2.3 BBT1201548.1.2.3.0],Conns=[delta wye],kvs=[13.8 0.22],kvas=[150.000000000 150.000000000],Taps=[1,1.000000000],%loadloss=1.127000000,%noloadloss=0.280000000
new transformer.234435 Phases=3,Windings=2,Buses=[BMT169125776.1.2.3 BBT1201723.1.2.3.0],Conns=[delta wye],kvs=[13.8 0.22],kvas=[75.000000000 75.000000000],Taps=[1,1.000000000],%loadloss=1.340000000,%noloadloss=0.340000000
new transformer.234463 Phases=3,Windings=2,Buses=[BMT168003647.1.2.3 BBT1202010.1.2.3.0],Conns=[delta wye],kvs=[13.8 0.22],kvas=[75.000000000 75.000000000],Taps=[1,1.000000000],%loadloss=1.340000000,%noloadloss=0.340000000
new transformer.234470 Phases=3,Windings=2,Buses=[BMT164344872.1.2.3 BBT1202066.1.2.3.0],Conns=[delta wye],kvs=[13.8 0.22],kvas=[75.000000000 75.000000000],Taps=[1,1.000000000],%loadloss=1.340000000,%noloadloss=0.340000000
new transformer.234477 Phases=3,Windings=2,Buses=[BMT148875594.1.2.3 BBT1202101.1.2.3.0],Conns=[delta wye],kvs=[13.8 0.22],kvas=[250.000000000 250.000000000],Taps=[1,1.000000000],%loadloss=0.990000000,%noloadloss=0.280000000
new transformer.234505 Phases=3,Windings=2,Buses=[BMT158080179.1.2.3 BBT1202381.1.2.3.0],Conns=[delta wye],kvs=[13.8 0.22],kvas=[100.000000000 100.000000000],Taps=[1,1.000000000],%loadloss=1.218000000,%noloadloss=0.335000000
new transformer.234512 Phases=3,Windings=2,Buses=[BMT169125772.1.2.3 BBT1202458.1.2.3.0],Conns=[delta wye],kvs=[13.8 0.22],kvas=[75.000000000 75.000000000],Taps=[1,1.000000000],%loadloss=1.340000000,%noloadloss=0.340000000
new transformer.234519 Phases=3,Windings=2,Buses=[BMT148858760.1.2.3 BBT1202528.1.2.3.0],Conns=[delta wye],kvs=[13.8 0.22],kvas=[250.000000000 250.000000000],Taps=[1,1.000000000],%loadloss=0.990000000,%noloadloss=0.280000000
new transformer.234526 Phases=3,Windings=2,Buses=[BMT126753393.1.2.3 BBT1202584.1.2.3.0],Conns=[delta wye],kvs=[13.8 0.22],kvas=[45.000000000 45.000000000],Taps=[1,1.000000000],%loadloss=1.522000000,%noloadloss=0.377777000
new transformer.234547 Phases=3,Windings=2,Buses=[BMT156820990.1.2.3 BBT1202745.1.2.3.0],Conns=[delta wye],kvs=[13.8 0.22],kvas=[100.000000000 100.000000000],Taps=[1,1.000000000],%loadloss=1.218000000,%noloadloss=0.335000000
new transformer.1042180 Phases=1,Windings=3,Buses=[BMT164382599.1 BBT107070716.1.0 BBT107070716.0.2],Conns=[wye wye wye],kvs=[7.967 0.12 0.12],kvas=[15.000000000 15.000000000 15.000000000],Taps=[1,1.000000000,1.000000000],%loadloss=1.600000000,%noloadloss=0.400000000
new transformer.1105488 Phases=1,Windings=3,Buses=[BMT162195731.2 BBT143052739.1.0 BBT143052739.0.2],Conns=[wye wye wye],kvs=[7.967 0.12 0.12],kvas=[35.000000000 35.000000000 35.000000000],Taps=[1,1.000000000,1.000000000],%loadloss=1.293000000,%noloadloss=0.342857000
new transformer.1122428 Phases=1,Windings=3,Buses=[BMT147432905.3 BBT147411702.1.0 BBT147411702.0.2],Conns=[wye wye wye],kvs=[7.967 0.12 0.12],kvas=[15.000000000 15.000000000 15.000000000],Taps=[1,1.000000000,1.000000000],%loadloss=1.600000000,%noloadloss=0.400000000
new transformer.1399178 Phases=3,Windings=2,Buses=[BMT156992947.1.2.3 BBT150126807.1.2.3.0],Conns=[delta wye],kvs=[13.8 0.22],kvas=[45.000000000 45.000000000],Taps=[1,1.000000000],%loadloss=1.522000000,%noloadloss=0.377777000
new transformer.1399186 Phases=3,Windings=2,Buses=[BMT167152196.1.2.3 BBT150130510.1.2.3.0],Conns=[delta wye],kvs=[13.8 0.22],kvas=[45.000000000 45.000000000],Taps=[1,1.000000000],%loadloss=1.522000000,%noloadloss=0.377777000
new transformer.1399197 Phases=3,Windings=2,Buses=[BMT167152210.1.2.3 BBT150131713.1.2.3.0],Conns=[delta wye],kvs=[13.8 0.22],kvas=[45.000000000 45.000000000],Taps=[1,1.000000000],%loadloss=1.522000000,%noloadloss=0.377777000
new transformer.1399207 Phases=3,Windings=2,Buses=[BMT150134537.1.2.3 BBT150134548.1.2.3.0],Conns=[delta wye],kvs=[13.8 0.22],kvas=[45.000000000 45.000000000],Taps=[1,1.000000000],%loadloss=1.522000000,%noloadloss=0.377777000
new transformer.1427468 Phases=3,Windings=2,Buses=[BMT157063062.1.2.3 BBT156668178.1.2.3.0],Conns=[delta wye],kvs=[13.8 0.22],kvas=[45.000000000 45.000000000],Taps=[1,1.000000000],%loadloss=1.522000000,%noloadloss=0.377777000
new transformer.1427769 Phases=3,Windings=2,Buses=[BMT157063061.1.2.3 BBT156731189.1.2.3.0],Conns=[delta wye],kvs=[13.8 0.22],kvas=[75.000000000 75.000000000],Taps=[1,1.000000000],%loadloss=1.340000000,%noloadloss=0.340000000
new transformer.1450212 Phases=1,Windings=3,Buses=[BMT169125369.2 BBT161704875.1.0 BBT161704875.0.2],Conns=[wye wye wye],kvs=[7.967 0.12 0.12],kvas=[15.000000000 15.000000000 15.000000000],Taps=[1,1.000000000,1.000000000],%loadloss=1.600000000,%noloadloss=0.400000000
new transformer.1450613 Phases=1,Windings=3,Buses=[BMT161795091.1 BBT161794899.1.0 BBT161794899.0.2],Conns=[wye wye wye],kvs=[7.967 0.12 0.12],kvas=[35.000000000 35.000000000 35.000000000],Taps=[1,1.000000000,1.000000000],%loadloss=1.293000000,%noloadloss=0.342857000
new transformer.1450616 Phases=1,Windings=3,Buses=[BMT161795090.1 BBT161795060.1.0 BBT161795060.0.2],Conns=[wye wye wye],kvs=[7.967 0.12 0.12],kvas=[15.000000000 15.000000000 15.000000000],Taps=[1,1.000000000,1.000000000],%loadloss=1.600000000,%noloadloss=0.400000000
new transformer.1461520 Phases=3,Windings=2,Buses=[BMT164650760.1.2.3 BBT164650761.1.2.3.0],Conns=[delta wye],kvs=[13.8 0.22],kvas=[45.000000000 45.000000000],Taps=[1,1.000000000],%loadloss=1.522000000,%noloadloss=0.377777000
new transformer.1461820 Phases=3,Windings=2,Buses=[BMT164705613.1.2.3 BBT164705513.1.2.3.0],Conns=[delta wye],kvs=[13.8 0.22],kvas=[45.000000000 45.000000000],Taps=[1,1.000000000],%loadloss=1.522000000,%noloadloss=0.377777000
new transformer.1467871 Phases=1,Windings=3,Buses=[BMT168749919.3 BBT166070202.1.0 BBT166070202.0.2],Conns=[wye wye wye],kvs=[7.967 0.12 0.12],kvas=[25.000000000 25.000000000 25.000000000],Taps=[1,1.000000000,1.000000000],%loadloss=1.420000000,%noloadloss=0.320000000
new transformer.1468079 Phases=1,Windings=3,Buses=[BMT167152194.3 BBT166104791.1.0 BBT166104791.0.2],Conns=[wye wye wye],kvs=[7.967 0.12 0.12],kvas=[10.000000000 10.000000000 10.000000000],Taps=[1,1.000000000,1.000000000],%loadloss=1.800000000,%noloadloss=0.450000000
new transformer.1474122 Phases=3,Windings=2,Buses=[BMT169125767.1.2.3 BBT167094950.1.2.3.0],Conns=[delta wye],kvs=[13.8 0.22],kvas=[150.000000000 150.000000000],Taps=[1,1.000000000],%loadloss=1.127000000,%noloadloss=0.280000000
new transformer.1479673 Phases=1,Windings=3,Buses=[BMT169272782.1 BBT168074057.1.0 BBT168074057.0.2],Conns=[wye wye wye],kvs=[7.967 0.12 0.12],kvas=[10.000000000 10.000000000 10.000000000],Taps=[1,1.000000000,1.000000000],%loadloss=1.800000000,%noloadloss=0.450000000
new transformer.239398 Phases=3,Windings=2,Buses=[BMT148875595.1.2.3 BBT1259529.1.2.3.0],Conns=[delta wye],kvs=[13.8 0.22],kvas=[250.000000000 250.000000000],Taps=[1,1.000000000],%loadloss=0.990000000,%noloadloss=0.280000000
new transformer.262470 Phases=3,Windings=2,Buses=[BMT157063058.1.2.3 BBT1308788.1.2.3.0],Conns=[delta wye],kvs=[13.8 0.22],kvas=[45.000000000 45.000000000],Taps=[1,1.000000000],%loadloss=1.522000000,%noloadloss=0.377777000
new transformer.262806 Phases=3,Windings=2,Buses=[BMT169212066.1.2.3 BBT1310601.1.2.3.0],Conns=[delta wye],kvs=[13.8 0.22],kvas=[75.000000000 75.000000000],Taps=[1,1.000000000],%loadloss=1.340000000,%noloadloss=0.340000000
new transformer.262813 Phases=3,Windings=2,Buses=[BMT152971335.1.2.3 BBT1310664.1.2.3.0],Conns=[delta wye],kvs=[13.8 0.22],kvas=[150.000000000 150.000000000],Taps=[1,1.000000000],%loadloss=1.127000000,%noloadloss=0.280000000
new transformer.262953 Phases=3,Windings=2,Buses=[BMT157620426.1.2.3 BBT1311343.1.2.3.0],Conns=[delta wye],kvs=[13.8 0.22],kvas=[15.000000000 15.000000000],Taps=[1,1.000000000],%loadloss=1.967000000,%noloadloss=0.500000000
new transformer.262967 Phases=3,Windings=2,Buses=[BMT165045050.1.2.3 BBT1311392.1.2.3.0],Conns=[delta wye],kvs=[13.8 0.22],kvas=[45.000000000 45.000000000],Taps=[1,1.000000000],%loadloss=1.522000000,%noloadloss=0.377777000
new transformer.262995 Phases=3,Windings=2,Buses=[BMT126746162.1.2.3 BBT1311700.1.2.3.0],Conns=[delta wye],kvs=[13.8 0.22],kvas=[75.000000000 75.000000000],Taps=[1,1.000000000],%loadloss=1.340000000,%noloadloss=0.340000000
new transformer.263002 Phases=3,Windings=2,Buses=[BMT126746169.1.2.3 BBT1311714.1.2.3.0],Conns=[delta wye],kvs=[13.8 0.22],kvas=[250.000000000 250.000000000],Taps=[1,1.000000000],%loadloss=0.990000000,%noloadloss=0.280000000
new transformer.274013 Phases=1,Windings=3,Buses=[BMT126753064.2 BBT1333708.1.0 BBT1333708.0.2],Conns=[wye wye wye],kvs=[7.967 0.12 0.12],kvas=[10.000000000 10.000000000 10.000000000],Taps=[1,1.000000000,1.000000000],%loadloss=1.800000000,%noloadloss=0.450000000
new transformer.274027 Phases=1,Windings=3,Buses=[BMT157620429.2 BBT1333736.1.0 BBT1333736.0.2],Conns=[wye wye wye],kvs=[7.967 0.12 0.12],kvas=[35.000000000 35.000000000 35.000000000],Taps=[1,1.000000000,1.000000000],%loadloss=1.293000000,%noloadloss=0.342857000
new transformer.274062 Phases=1,Windings=3,Buses=[BMT167152197.1 BBT1333806.1.0 BBT1333806.0.2],Conns=[wye wye wye],kvs=[7.967 0.12 0.12],kvas=[15.000000000 15.000000000 15.000000000],Taps=[1,1.000000000,1.000000000],%loadloss=1.600000000,%noloadloss=0.400000000
new transformer.274069 Phases=1,Windings=3,Buses=[BMT169125351.2 BBT1333820.1.0 BBT1333820.0.2],Conns=[wye wye wye],kvs=[7.967 0.12 0.12],kvas=[5.000000000 5.000000000 5.000000000],Taps=[1,1.000000000,1.000000000],%loadloss=1.900000000,%noloadloss=0.600000000
new transformer.274076 Phases=1,Windings=3,Buses=[BMT169125348.2 BBT1333834.1.0 BBT1333834.0.2],Conns=[wye wye wye],kvs=[7.967 0.12 0.12],kvas=[10.000000000 10.000000000 10.000000000],Taps=[1,1.000000000,1.000000000],%loadloss=1.800000000,%noloadloss=0.450000000
new transformer.274083 Phases=1,Windings=3,Buses=[BMT169125352.2 BBT1333848.1.0 BBT1333848.0.2],Conns=[wye wye wye],kvs=[7.967 0.12 0.12],kvas=[10.000000000 10.000000000 10.000000000],Taps=[1,1.000000000,1.000000000],%loadloss=1.800000000,%noloadloss=0.450000000
new transformer.274090 Phases=1,Windings=3,Buses=[BMT169125354.2 BBT1333862.1.0 BBT1333862.0.2],Conns=[wye wye wye],kvs=[7.967 0.12 0.12],kvas=[10.000000000 10.000000000 10.000000000],Taps=[1,1.000000000,1.000000000],%loadloss=1.800000000,%noloadloss=0.450000000
new transformer.274104 Phases=1,Windings=3,Buses=[BMT167152199.3 BBT1333890.1.0 BBT1333890.0.2],Conns=[wye wye wye],kvs=[7.967 0.12 0.12],kvas=[15.000000000 15.000000000 15.000000000],Taps=[1,1.000000000,1.000000000],%loadloss=1.600000000,%noloadloss=0.400000000
new transformer.274118 Phases=1,Windings=3,Buses=[BMT168749922.3 BBT1333918.1.0 BBT1333918.0.2],Conns=[wye wye wye],kvs=[7.967 0.12 0.12],kvas=[15.000000000 15.000000000 15.000000000],Taps=[1,1.000000000,1.000000000],%loadloss=1.600000000,%noloadloss=0.400000000
new transformer.274132 Phases=1,Windings=3,Buses=[BMT168749925.3 BBT1333946.1.0 BBT1333946.0.2],Conns=[wye wye wye],kvs=[7.967 0.12 0.12],kvas=[5.000000000 5.000000000 5.000000000],Taps=[1,1.000000000,1.000000000],%loadloss=1.900000000,%noloadloss=0.600000000
new transformer.274146 Phases=1,Windings=3,Buses=[BMT168749926.3 BBT1333974.1.0 BBT1333974.0.2],Conns=[wye wye wye],kvs=[7.967 0.12 0.12],kvas=[5.000000000 5.000000000 5.000000000],Taps=[1,1.000000000,1.000000000],%loadloss=1.900000000,%noloadloss=0.600000000
new transformer.274167 Phases=1,Windings=3,Buses=[BMT170061415.1 BBT1334016.1.0 BBT1334016.0.2],Conns=[wye wye wye],kvs=[7.967 0.12 0.12],kvas=[10.000000000 10.000000000 10.000000000],Taps=[1,1.000000000,1.000000000],%loadloss=1.800000000,%noloadloss=0.450000000
new transformer.274181 Phases=1,Windings=3,Buses=[BMT170061416.1 BBT1334044.1.0 BBT1334044.0.2],Conns=[wye wye wye],kvs=[7.967 0.12 0.12],kvas=[15.000000000 15.000000000 15.000000000],Taps=[1,1.000000000,1.000000000],%loadloss=1.600000000,%noloadloss=0.400000000
new transformer.274195 Phases=1,Windings=3,Buses=[BMT126748549.3 BBT1334072.1.0 BBT1334072.0.2],Conns=[wye wye wye],kvs=[7.967 0.12 0.12],kvas=[15.000000000 15.000000000 15.000000000],Taps=[1,1.000000000,1.000000000],%loadloss=1.600000000,%noloadloss=0.400000000
new transformer.274209 Phases=1,Windings=3,Buses=[BMT170061418.3 BBT1334100.1.0 BBT1334100.0.2],Conns=[wye wye wye],kvs=[7.967 0.12 0.12],kvas=[10.000000000 10.000000000 10.000000000],Taps=[1,1.000000000,1.000000000],%loadloss=1.800000000,%noloadloss=0.450000000
new transformer.274216 Phases=3,Windings=2,Buses=[BMT170061420.1.2.3 BBT1334114.1.2.3.0],Conns=[delta wye],kvs=[13.8 0.22],kvas=[30.000000000 30.000000000],Taps=[1,1.000000000],%loadloss=1.667000000,%noloadloss=0.433333000
new transformer.274223 Phases=3,Windings=2,Buses=[BMT170061423.1.2.3 BBT1334128.1.2.3.0],Conns=[delta wye],kvs=[13.8 0.22],kvas=[30.000000000 30.000000000],Taps=[1,1.000000000],%loadloss=1.667000000,%noloadloss=0.433333000
new transformer.274230 Phases=1,Windings=3,Buses=[BMT126748535.2 BBT1334142.1.0 BBT1334142.0.2],Conns=[wye wye wye],kvs=[7.967 0.12 0.12],kvas=[10.000000000 10.000000000 10.000000000],Taps=[1,1.000000000,1.000000000],%loadloss=1.800000000,%noloadloss=0.450000000
new transformer.274237 Phases=1,Windings=3,Buses=[BMT126748528.2 BBT1334156.1.0 BBT1334156.0.2],Conns=[wye wye wye],kvs=[7.967 0.12 0.12],kvas=[5.000000000 5.000000000 5.000000000],Taps=[1,1.000000000,1.000000000],%loadloss=1.900000000,%noloadloss=0.600000000
new transformer.274244 Phases=3,Windings=2,Buses=[BMT169742047.1.2.3 BBT1334170.1.2.3.0],Conns=[delta wye],kvs=[13.8 0.22],kvas=[75.000000000 75.000000000],Taps=[1,1.000000000],%loadloss=1.340000000,%noloadloss=0.340000000
new transformer.274251 Phases=1,Windings=3,Buses=[BMT169742045.1 BBT1334184.1.0 BBT1334184.0.2],Conns=[wye wye wye],kvs=[7.967 0.12 0.12],kvas=[10.000000000 10.000000000 10.000000000],Taps=[1,1.000000000,1.000000000],%loadloss=1.800000000,%noloadloss=0.450000000
new transformer.274258 Phases=1,Windings=3,Buses=[BMT126748507.2 BBT1334198.1.0 BBT1334198.0.2],Conns=[wye wye wye],kvs=[7.967 0.12 0.12],kvas=[25.000000000 25.000000000 25.000000000],Taps=[1,1.000000000,1.000000000],%loadloss=1.420000000,%noloadloss=0.320000000
new transformer.274265 Phases=1,Windings=3,Buses=[BMT127219852.3 BBT1334212.1.0 BBT1334212.0.2],Conns=[wye wye wye],kvs=[7.967 0.12 0.12],kvas=[35.000000000 35.000000000 35.000000000],Taps=[1,1.000000000,1.000000000],%loadloss=1.293000000,%noloadloss=0.342857000
new transformer.1006739 Phases=1,Windings=3,Buses=[BMT166740852.2 BBT98142083.1.0 BBT98142083.0.2],Conns=[wye wye wye],kvs=[7.967 0.12 0.12],kvas=[5.000000000 5.000000000 5.000000000],Taps=[1,1.000000000,1.000000000],%loadloss=1.900000000,%noloadloss=0.600000000
new transformer.1006753 Phases=1,Windings=3,Buses=[BMT166740854.2 BBT98142167.1.0 BBT98142167.0.2],Conns=[wye wye wye],kvs=[7.967 0.12 0.12],kvas=[5.000000000 5.000000000 5.000000000],Taps=[1,1.000000000,1.000000000],%loadloss=1.900000000,%noloadloss=0.600000000
new transformer.1021873 Phases=1,Windings=3,Buses=[BMT169408041.1 BBT101351065.1.0 BBT101351065.0.2],Conns=[wye wye wye],kvs=[7.967 0.12 0.12],kvas=[5.000000000 5.000000000 5.000000000],Taps=[1,1.000000000,1.000000000],%loadloss=1.900000000,%noloadloss=0.600000000
new transformer.1035404 Phases=3,Windings=2,Buses=[BMT157501512.1.2.3 BBT101489686.1.2.3.0],Conns=[delta wye],kvs=[13.8 0.22],kvas=[75.000000000 75.000000000],Taps=[1,1.000000000],%loadloss=1.340000000,%noloadloss=0.340000000
new transformer.1087666 Phases=1,Windings=3,Buses=[BMT138327417.1 BBT138325905.1.0 BBT138325905.0.2],Conns=[wye wye wye],kvs=[7.967 0.12 0.12],kvas=[5.000000000 5.000000000 5.000000000],Taps=[1,1.000000000,1.000000000],%loadloss=1.900000000,%noloadloss=0.600000000
new transformer.1391441 Phases=1,Windings=3,Buses=[BMT159220740.2 BBT148393767.1.0 BBT148393767.0.2],Conns=[wye wye wye],kvs=[7.967 0.12 0.12],kvas=[10.000000000 10.000000000 10.000000000],Taps=[1,1.000000000,1.000000000],%loadloss=1.800000000,%noloadloss=0.450000000
new transformer.1479296 Phases=3,Windings=2,Buses=[BMT168003650.1.2.3 BBT168003587.1.2.3.0],Conns=[delta wye],kvs=[13.8 0.22],kvas=[150.000000000 150.000000000],Taps=[1,1.000000000],%loadloss=1.127000000,%noloadloss=0.280000000
new transformer.234771 Phases=3,Windings=2,Buses=[BMT149192904.1.2.3 BBT1205111.1.2.3.0],Conns=[delta wye],kvs=[13.8 0.22],kvas=[45.000000000 45.000000000],Taps=[1,1.000000000],%loadloss=1.522000000,%noloadloss=0.377777000
new transformer.234778 Phases=1,Windings=3,Buses=[BMT126746309.1 BBT1205202.1.0 BBT1205202.0.2],Conns=[wye wye wye],kvs=[7.967 0.12 0.12],kvas=[25.000000000 25.000000000 25.000000000],Taps=[1,1.000000000,1.000000000],%loadloss=1.420000000,%noloadloss=0.320000000
new transformer.234785 Phases=1,Windings=3,Buses=[BMT169212068.1 BBT1205272.1.0 BBT1205272.0.2],Conns=[wye wye wye],kvs=[7.967 0.12 0.12],kvas=[5.000000000 5.000000000 5.000000000],Taps=[1,1.000000000,1.000000000],%loadloss=1.900000000,%noloadloss=0.600000000
new transformer.234799 Phases=3,Windings=2,Buses=[BMT126746323.1.2.3 BBT1205377.1.2.3.0],Conns=[delta wye],kvs=[13.8 0.22],kvas=[45.000000000 45.000000000],Taps=[1,1.000000000],%loadloss=1.522000000,%noloadloss=0.377777000
new transformer.234813 Phases=3,Windings=2,Buses=[BMT126746316.1.2.3 BBT1205503.1.2.3.0],Conns=[delta wye],kvs=[13.8 0.22],kvas=[45.000000000 45.000000000],Taps=[1,1.000000000],%loadloss=1.522000000,%noloadloss=0.377777000
new transformer.234820 Phases=3,Windings=2,Buses=[BMT157063056.1.2.3 BBT1205580.1.2.3.0],Conns=[delta wye],kvs=[13.8 0.22],kvas=[150.000000000 150.000000000],Taps=[1,1.000000000],%loadloss=1.127000000,%noloadloss=0.280000000
new transformer.234827 Phases=3,Windings=2,Buses=[BMT149192901.1.2.3 BBT1205601.1.2.3.0],Conns=[delta wye],kvs=[13.8 0.22],kvas=[45.000000000 45.000000000],Taps=[1,1.000000000],%loadloss=1.522000000,%noloadloss=0.377777000
new transformer.234834 Phases=3,Windings=2,Buses=[BMT138775613.1.2.3 BBT1205685.1.2.3.0],Conns=[delta wye],kvs=[13.8 0.22],kvas=[45.000000000 45.000000000],Taps=[1,1.000000000],%loadloss=1.522000000,%noloadloss=0.377777000
new transformer.234841 Phases=3,Windings=2,Buses=[BMT157063063.1.2.3 BBT1205748.1.2.3.0],Conns=[delta wye],kvs=[13.8 0.22],kvas=[75.000000000 75.000000000],Taps=[1,1.000000000],%loadloss=1.340000000,%noloadloss=0.340000000
new transformer.234848 Phases=3,Windings=2,Buses=[BMT149192902.1.2.3 BBT1205839.1.2.3.0],Conns=[delta wye],kvs=[13.8 0.22],kvas=[30.000000000 30.000000000],Taps=[1,1.000000000],%loadloss=1.667000000,%noloadloss=0.433333000
new transformer.234855 Phases=3,Windings=2,Buses=[BMT138775592.1.2.3 BBT1205923.1.2.3.0],Conns=[delta wye],kvs=[13.8 0.22],kvas=[45.000000000 45.000000000],Taps=[1,1.000000000],%loadloss=1.522000000,%noloadloss=0.377777000
new transformer.234862 Phases=3,Windings=2,Buses=[BMT126746155.1.2.3 BBT1205993.1.2.3.0],Conns=[delta wye],kvs=[13.8 0.22],kvas=[100.000000000 100.000000000],Taps=[1,1.000000000],%loadloss=1.218000000,%noloadloss=0.335000000
new transformer.234876 Phases=3,Windings=2,Buses=[BMT149192905.1.2.3 BBT1206049.1.2.3.0],Conns=[delta wye],kvs=[13.8 0.22],kvas=[45.000000000 45.000000000],Taps=[1,1.000000000],%loadloss=1.522000000,%noloadloss=0.377777000
new transformer.234883 Phases=3,Windings=2,Buses=[BMT149192907.1.2.3 BBT1206077.1.2.3.0],Conns=[delta wye],kvs=[13.8 0.22],kvas=[30.000000000 30.000000000],Taps=[1,1.000000000],%loadloss=1.667000000,%noloadloss=0.433333000
new transformer.234925 Phases=3,Windings=2,Buses=[BMT149192908.1.2.3 BBT1206504.1.2.3.0],Conns=[delta wye],kvs=[13.8 0.22],kvas=[30.000000000 30.000000000],Taps=[1,1.000000000],%loadloss=1.667000000,%noloadloss=0.433333000
new transformer.273985 Phases=1,Windings=3,Buses=[BMT126753092.2 BBT1333652.1.0 BBT1333652.0.2],Conns=[wye wye wye],kvs=[7.967 0.12 0.12],kvas=[10.000000000 10.000000000 10.000000000],Taps=[1,1.000000000,1.000000000],%loadloss=1.800000000,%noloadloss=0.450000000
new transformer.273999 Phases=1,Windings=3,Buses=[BMT126753078.2 BBT1333680.1.0 BBT1333680.0.2],Conns=[wye wye wye],kvs=[7.967 0.12 0.12],kvas=[10.000000000 10.000000000 10.000000000],Taps=[1,1.000000000,1.000000000],%loadloss=1.800000000,%noloadloss=0.450000000
new transformer.234554 Phases=3,Windings=2,Buses=[BMT165045048.1.2.3 BBT1202759.1.2.3.0],Conns=[delta wye],kvs=[13.8 0.22],kvas=[45.000000000 45.000000000],Taps=[1,1.000000000],%loadloss=1.522000000,%noloadloss=0.377777000
new transformer.234561 Phases=3,Windings=2,Buses=[BMT169125770.1.2.3 BBT1202815.1.2.3.0],Conns=[delta wye],kvs=[13.8 0.22],kvas=[75.000000000 75.000000000],Taps=[1,1.000000000],%loadloss=1.340000000,%noloadloss=0.340000000
new transformer.234596 Phases=3,Windings=2,Buses=[BMT126752931.1.2.3 BBT1203130.1.2.3.0],Conns=[delta wye],kvs=[13.8 0.22],kvas=[30.000000000 30.000000000],Taps=[1,1.000000000],%loadloss=1.667000000,%noloadloss=0.433333000
new transformer.234617 Phases=3,Windings=2,Buses=[BMT126753155.1.2.3 BBT1203368.1.2.3.0],Conns=[delta wye],kvs=[13.8 0.22],kvas=[150.000000000 150.000000000],Taps=[1,1.000000000],%loadloss=1.127000000,%noloadloss=0.280000000
new transformer.234624 Phases=3,Windings=2,Buses=[BMT160539797.1.2.3 BBT1203424.1.2.3.0],Conns=[delta wye],kvs=[13.8 0.22],kvas=[30.000000000 30.000000000],Taps=[1,1.000000000],%loadloss=1.667000000,%noloadloss=0.433333000
new transformer.234631 Phases=3,Windings=2,Buses=[BMT164344874.1.2.3 BBT1203501.1.2.3.0],Conns=[delta wye],kvs=[13.8 0.22],kvas=[100.000000000 100.000000000],Taps=[1,1.000000000],%loadloss=1.218000000,%noloadloss=0.335000000
new transformer.234645 Phases=3,Windings=2,Buses=[BMT168991605.1.2.3 BBT1203606.1.2.3.0],Conns=[delta wye],kvs=[13.8 0.22],kvas=[100.000000000 100.000000000],Taps=[1,1.000000000],%loadloss=1.218000000,%noloadloss=0.335000000
new transformer.234652 Phases=3,Windings=2,Buses=[BMT126752896.1.2.3 BBT1203662.1.2.3.0],Conns=[delta wye],kvs=[13.8 0.22],kvas=[30.000000000 30.000000000],Taps=[1,1.000000000],%loadloss=1.667000000,%noloadloss=0.433333000
new transformer.234659 Phases=3,Windings=2,Buses=[BMT169125773.1.2.3 BBT1203739.1.2.3.0],Conns=[delta wye],kvs=[13.8 0.22],kvas=[75.000000000 75.000000000],Taps=[1,1.000000000],%loadloss=1.340000000,%noloadloss=0.340000000
new transformer.234666 Phases=3,Windings=2,Buses=[BMT169125769.1.2.3 BBT1203865.1.2.3.0],Conns=[delta wye],kvs=[13.8 0.22],kvas=[45.000000000 45.000000000],Taps=[1,1.000000000],%loadloss=1.522000000,%noloadloss=0.377777000
new transformer.234673 Phases=3,Windings=2,Buses=[BMT160539800.1.2.3 BBT1203914.1.2.3.0],Conns=[delta wye],kvs=[13.8 0.22],kvas=[30.000000000 30.000000000],Taps=[1,1.000000000],%loadloss=1.667000000,%noloadloss=0.433333000
new transformer.234680 Phases=3,Windings=2,Buses=[BMT126752917.1.2.3 BBT1203984.1.2.3.0],Conns=[delta wye],kvs=[13.8 0.22],kvas=[30.000000000 30.000000000],Taps=[1,1.000000000],%loadloss=1.667000000,%noloadloss=0.433333000
new transformer.234687 Phases=1,Windings=3,Buses=[BMT138775620.1 BBT1204068.1.0 BBT1204068.0.2],Conns=[wye wye wye],kvs=[7.967 0.12 0.12],kvas=[35.000000000 35.000000000 35.000000000],Taps=[1,1.000000000,1.000000000],%loadloss=1.293000000,%noloadloss=0.342857000
new transformer.234694 Phases=3,Windings=2,Buses=[BMT168991604.1.2.3 BBT1204152.1.2.3.0],Conns=[delta wye],kvs=[13.8 0.22],kvas=[150.000000000 150.000000000],Taps=[1,1.000000000],%loadloss=1.127000000,%noloadloss=0.280000000
new transformer.234701 Phases=3,Windings=2,Buses=[BMT156820992.1.2.3 BBT1204208.1.2.3.0],Conns=[delta wye],kvs=[13.8 0.22],kvas=[150.000000000 150.000000000],Taps=[1,1.000000000],%loadloss=1.127000000,%noloadloss=0.280000000
new transformer.234757 Phases=3,Windings=2,Buses=[BMT169125766.1.2.3 BBT1204908.1.2.3.0],Conns=[delta wye],kvs=[13.8 0.22],kvas=[250.000000000 250.000000000],Taps=[1,1.000000000],%loadloss=0.990000000,%noloadloss=0.280000000
new transformer.274734 Phases=3,Windings=2,Buses=[BMT157627354.1.2.3 BBT1335143.1.2.3.0],Conns=[delta wye],kvs=[13.8 0.22],kvas=[45.000000000 45.000000000],Taps=[1,1.000000000],%loadloss=1.522000000,%noloadloss=0.377777000
new transformer.274748 Phases=3,Windings=2,Buses=[BMT164705616.1.2.3 BBT1335171.1.2.3.0],Conns=[delta wye],kvs=[13.8 0.22],kvas=[30.000000000 30.000000000],Taps=[1,1.000000000],%loadloss=1.667000000,%noloadloss=0.433333000
new transformer.274762 Phases=1,Windings=3,Buses=[BMT162152171.2 BBT1335199.1.0 BBT1335199.0.2],Conns=[wye wye wye],kvs=[7.967 0.12 0.12],kvas=[10.000000000 10.000000000 10.000000000],Taps=[1,1.000000000,1.000000000],%loadloss=1.800000000,%noloadloss=0.450000000
...