CemigDFeeders/VCS11/VCS11SegmentosBT.dss
new line.1143007 bus1=BBT1192217.1.2.3.0,bus2=BBT1192224.1.2.3.0,Phases=3,Linecode=BT810_BT810_4_3_4,Length=0.037790000,Units=km
new line.1143014 bus1=BBT1192217.1.2.3.0,bus2=BBT1192238.1.2.3.0,Phases=3,Linecode=BT810_BT810_4_3_4,Length=0.018750000,Units=km
new line.1143021 bus1=BBT1192224.1.2.3.0,bus2=BBT1192231.1.2.3.0,Phases=3,Linecode=BT810_BT810_4_3_4,Length=0.036840000,Units=km
new line.1143028 bus1=BBT1192224.1.2.0,bus2=BBT3063562.1.2.0,Phases=2,Linecode=BT808_BT808_4_2_3,Length=0.041060000,Units=km
new line.1143035 bus1=BBT3271378.1.2.3.0,bus2=BBT1192252.1.2.3.0,Phases=3,Linecode=BT803_BT803_4_3_4,Length=0.034610000,Units=km
new line.1143042 bus1=BBT1192238.1.2.3.0,bus2=BBT1192245.1.2.3.0,Phases=3,Linecode=BT810_BT810_4_3_4,Length=0.021680000,Units=km
new line.1143049 bus1=BBT1192252.1.2.3.0,bus2=BBT1192259.1.2.3.0,Phases=3,Linecode=BT803_BT803_4_3_4,Length=0.038230000,Units=km
new line.1143056 bus1=BBT1192259.1.2.3.0,bus2=BBT1192266.1.2.3.0,Phases=3,Linecode=BT803_BT803_4_3_4,Length=0.035340000,Units=km
new line.1143063 bus1=BBT1192266.1.2.3.0,bus2=BBT1192273.1.2.3.0,Phases=3,Linecode=BT803_BT803_4_3_4,Length=0.034730000,Units=km
new line.1143070 bus1=BBT1192273.1.2.3.0,bus2=BBT1192280.1.2.3.0,Phases=3,Linecode=BT803_BT803_4_3_4,Length=0.032250000,Units=km
new line.1143077 bus1=BBT1192301.1.2.3.0,bus2=BBT1192294.1.2.3.0,Phases=3,Linecode=BT107_BT107_7_3_1,Length=0.029420000,Units=km
new line.1143084 bus1=BBT1192308.1.2.3.0,bus2=BBT1192301.1.2.3.0,Phases=3,Linecode=BT107_BT107_7_3_1,Length=0.030320000,Units=km
new line.1143098 bus1=BBT1192315.1.2.3.0,bus2=BBT1192308.1.2.3.0,Phases=3,Linecode=BT108_BT108_7_3_1,Length=0.031020000,Units=km
new line.1143105 bus1=BBT1192329.1.2.3.0,bus2=BBT1192315.1.2.3.0,Phases=3,Linecode=BT108_BT108_7_3_1,Length=0.041110000,Units=km
new line.1143112 bus1=BBT1192287.1.2.3.0,bus2=BBT1192329.1.2.3.0,Phases=3,Linecode=BT307_BT307_7_3_1,Length=0.000510000,Units=km
new line.1143119 bus1=BBT1192329.1.2.3.0,bus2=BBT1192336.1.2.3.0,Phases=3,Linecode=BT108_BT108_7_3_1,Length=0.028880000,Units=km
new line.1143126 bus1=BBT1192336.1.2.3.0,bus2=BBT1192322.1.2.3.0,Phases=3,Linecode=BT107_BT107_7_3_1,Length=0.033900000,Units=km
new line.1143133 bus1=BBT1192336.1.2.3.0,bus2=BBT1192343.1.2.3.0,Phases=3,Linecode=BT108_BT108_7_3_1,Length=0.025960000,Units=km
new line.1143140 bus1=BBT1192343.1.2.3.0,bus2=BBT1192357.1.2.3.0,Phases=3,Linecode=BT108_BT108_7_3_1,Length=0.023120000,Units=km
new line.1143147 bus1=BBT1192357.1.2.3.0,bus2=BBT1192364.1.2.3.0,Phases=3,Linecode=BT108_BT108_7_3_1,Length=0.028130000,Units=km
new line.1143154 bus1=BBT1192364.1.2.3.0,bus2=BBT1192350.1.2.3.0,Phases=3,Linecode=BT810_BT810_4_3_4,Length=0.038940000,Units=km
new line.1143161 bus1=BBT1192364.1.2.3.0,bus2=BBT1192371.1.2.3.0,Phases=3,Linecode=BT810_BT810_4_3_4,Length=0.035170000,Units=km
new line.1143168 bus1=BBT1192392.1.2.3.0,bus2=BBT1192385.1.2.3.0,Phases=3,Linecode=BT803_BT803_4_3_4,Length=0.032840000,Units=km
new line.1143175 bus1=BBT1192399.1.2.3.0,bus2=BBT1192392.1.2.3.0,Phases=3,Linecode=BT803_BT803_4_3_4,Length=0.031420000,Units=km
new line.1143182 bus1=BBT1192378.1.2.3.0,bus2=BBT1192399.1.2.3.0,Phases=3,Linecode=BT509_BT509_7_3_1,Length=0.000510000,Units=km
new line.1143189 bus1=BBT1192399.1.2.3.0,bus2=BBT1192406.1.2.3.0,Phases=3,Linecode=BT803_BT803_4_3_4,Length=0.026120000,Units=km
new line.1143196 bus1=BBT1192406.1.2.3.0,bus2=BBT1192413.1.2.3.0,Phases=3,Linecode=BT803_BT803_4_3_4,Length=0.024070000,Units=km
new line.1143203 bus1=BBT1192406.1.2.3.0,bus2=BBT2387530.1.2.3.0,Phases=3,Linecode=BT810_BT810_4_3_4,Length=0.021610000,Units=km
new line.1143210 bus1=BBT1192413.1.2.3.0,bus2=BBT1192420.1.2.3.0,Phases=3,Linecode=BT803_BT803_4_3_4,Length=0.029990000,Units=km
new line.1143217 bus1=BBT1192420.1.2.3.0,bus2=BBT1192427.1.2.3.0,Phases=3,Linecode=BT810_BT810_4_3_4,Length=0.035690000,Units=km
new line.1143224 bus1=BBT1192427.1.2.3.0,bus2=BBT1194660.1.2.3.0,Phases=3,Linecode=BT810_BT810_4_3_4,Length=0.036780000,Units=km
new line.1143231 bus1=BBT2092123.1.2.3.0,bus2=BBT2276370.1.2.3.0,Phases=3,Linecode=BT108_BT108_7_3_1,Length=0.033220000,Units=km
new line.1143238 bus1=BBT1192448.1.2.3.0,bus2=BBT2217514.1.2.3.0,Phases=3,Linecode=BT108_BT108_7_3_1,Length=0.023480000,Units=km
new line.1143245 bus1=BBT1192455.1.2.3.0,bus2=BBT1192448.1.2.3.0,Phases=3,Linecode=BT108_BT108_7_3_1,Length=0.023810000,Units=km
new line.1143252 bus1=BBT1192462.1.2.3.0,bus2=BBT1192455.1.2.3.0,Phases=3,Linecode=BT108_BT108_7_3_1,Length=0.037610000,Units=km
new line.1143259 bus1=BBT1192469.1.2.3.0,bus2=BBT1192462.1.2.3.0,Phases=3,Linecode=BT108_BT108_7_3_1,Length=0.032010000,Units=km
new line.1143266 bus1=BBT1192441.1.2.3.0,bus2=BBT1192469.1.2.3.0,Phases=3,Linecode=BT513_BT513_7_3_1,Length=0.000510000,Units=km
new line.1143273 bus1=BBT1192469.1.2.3.0,bus2=BBT1192476.1.2.3.0,Phases=3,Linecode=BT108_BT107_7_3_1,Length=0.033900000,Units=km
...